self exe links to: /home/vikas_maurya/GPU_prgm/attention_naive/aten
self exe links to: /home/vikas_maurya/GPU_prgm/attention_naive/aten


        *** GPGPU-Sim Simulator Version 4.2.0  [build gpgpu-sim_git-commit-6c3cf4ff_modified_3.0] ***


GPGPU-Sim PTX: simulation mode 0 (can change with PTX_SIM_MODE_FUNC environment variable:
               1=functional simulation only, 0=detailed performance simulator)
GPGPU-Sim PTX: overriding embedded ptx with ptx file (PTX_SIM_USE_PTX_FILE is set)
GPGPU-Sim: Configuration options:

-save_embedded_ptx                      0 # saves ptx files embedded in binary as <n>.ptx
-keep                                   0 # keep intermediate files created by GPGPU-Sim when interfacing with external programs
-gpgpu_ptx_save_converted_ptxplus                    0 # Saved converted ptxplus to a file
-gpgpu_occupancy_sm_number                   86 # The SM number to pass to ptxas when getting register usage for computing GPU occupancy. This parameter is required in the config.
-ptx_opcode_latency_int           4,4,4,4,21 # Opcode latencies for integers <ADD,MAX,MUL,MAD,DIV,SHFL>Default 1,1,19,25,145,32
-ptx_opcode_latency_fp           4,4,4,4,39 # Opcode latencies for single precision floating points <ADD,MAX,MUL,MAD,DIV>Default 1,1,1,1,30
-ptx_opcode_latency_dp      64,64,64,64,330 # Opcode latencies for double precision floating points <ADD,MAX,MUL,MAD,DIV>Default 8,8,8,8,335
-ptx_opcode_latency_sfu                   21 # Opcode latencies for SFU instructionsDefault 8
-ptx_opcode_latency_tesnor                   64 # Opcode latencies for Tensor instructionsDefault 64
-ptx_opcode_initiation_int            2,2,2,2,2 # Opcode initiation intervals for integers <ADD,MAX,MUL,MAD,DIV,SHFL>Default 1,1,4,4,32,4
-ptx_opcode_initiation_fp            1,1,1,1,2 # Opcode initiation intervals for single precision floating points <ADD,MAX,MUL,MAD,DIV>Default 1,1,1,1,5
-ptx_opcode_initiation_dp      64,64,64,64,130 # Opcode initiation intervals for double precision floating points <ADD,MAX,MUL,MAD,DIV>Default 8,8,8,8,130
-ptx_opcode_initiation_sfu                    8 # Opcode initiation intervals for sfu instructionsDefault 8
-ptx_opcode_initiation_tensor                   64 # Opcode initiation intervals for tensor instructionsDefault 64
-cdp_latency         7200,8000,100,12000,1600 # CDP API latency <cudaStreamCreateWithFlags, cudaGetParameterBufferV2_init_perWarp, cudaGetParameterBufferV2_perKernel, cudaLaunchDeviceV2_init_perWarp, cudaLaunchDevicV2_perKernel>Default 7200,8000,100,12000,1600
-network_mode                           2 # Interconnection network mode
-inter_config_file                   mesh # Interconnection network config file
-icnt_in_buffer_limit                  512 # in_buffer_limit
-icnt_out_buffer_limit                  512 # out_buffer_limit
-icnt_subnets                           2 # subnets
-icnt_arbiter_algo                      1 # arbiter_algo
-icnt_verbose                           0 # inct_verbose
-icnt_grant_cycles                      1 # grant_cycles
-gpgpu_ptx_use_cuobjdump                    1 # Use cuobjdump to extract ptx and sass from binaries
-gpgpu_experimental_lib_support                    0 # Try to extract code from cuda libraries [Broken because of unknown cudaGetExportTable]
-checkpoint_option                      0 #  checkpointing flag (0 = no checkpoint)
-checkpoint_kernel                      1 #  checkpointing during execution of which kernel (1- 1st kernel)
-checkpoint_CTA                         0 #  checkpointing after # of CTA (< less than total CTA)
-resume_option                          0 #  resume flag (0 = no resume)
-resume_kernel                          0 #  Resume from which kernel (1= 1st kernel)
-resume_CTA                             0 #  resume from which CTA 
-checkpoint_CTA_t                       0 #  resume from which CTA 
-checkpoint_insn_Y                      0 #  resume from which CTA 
-gpgpu_ptx_convert_to_ptxplus                    0 # Convert SASS (native ISA) to ptxplus and run ptxplus
-gpgpu_ptx_force_max_capability                   86 # Force maximum compute capability
-gpgpu_ptx_inst_debug_to_file                    0 # Dump executed instructions' debug information to file
-gpgpu_ptx_inst_debug_file       inst_debug.txt # Executed instructions' debug output file
-gpgpu_ptx_inst_debug_thread_uid                    1 # Thread UID for executed instructions' debug output
-gpgpu_simd_model                       1 # 1 = post-dominator
-gpgpu_shader_core_pipeline              1536:32 # shader core pipeline config, i.e., {<nthread>:<warpsize>}
-gpgpu_tex_cache:l1  N:4:128:256,L:R:m:N:L,T:512:8,128:2 # per-shader L1 texture cache  (READ-ONLY) config  {<nsets>:<bsize>:<assoc>,<rep>:<wr>:<alloc>:<wr_alloc>,<mshr>:<N>:<merge>,<mq>:<rf>}
-gpgpu_const_cache:l1 N:128:64:8,L:R:f:N:L,S:2:64,4 # per-shader L1 constant memory cache  (READ-ONLY) config  {<nsets>:<bsize>:<assoc>,<rep>:<wr>:<alloc>:<wr_alloc>,<mshr>:<N>:<merge>,<mq>} 
-gpgpu_cache:il1     N:64:128:16,L:R:f:N:L,S:2:48,4 # shader L1 instruction cache config  {<sector?>:<nsets>:<bsize>:<assoc>,<rep>:<wr>:<alloc>:<wr_alloc>:<set_index_fn>,<mshr>:<N>:<merge>,<mq>} 
-gpgpu_cache:dl1     S:4:128:256,L:T:m:L:L,A:384:48,16:0,32 # per-shader L1 data cache config  {<sector?>:<nsets>:<bsize>:<assoc>,<rep>:<wr>:<alloc>:<wr_alloc>:<set_index_fn>,<mshr>:<N>:<merge>,<mq>:<fifo_entry>,<data_port_width> | none}
-gpgpu_l1_cache_write_ratio                   25 # L1D write ratio
-gpgpu_l1_banks                         4 # The number of L1 cache banks
-gpgpu_l1_banks_byte_interleaving                   32 # l1 banks byte interleaving granularity
-gpgpu_l1_banks_hashing_function                    0 # l1 banks hashing function
-gpgpu_l1_latency                      39 # L1 Hit Latency
-gpgpu_smem_latency                    29 # smem Latency
-gpgpu_cache:dl1PrefL1                 none # per-shader L1 data cache config  {<sector?>:<nsets>:<bsize>:<assoc>,<rep>:<wr>:<alloc>:<wr_alloc>:<set_index_fn>,<mshr>:<N>:<merge>,<mq>:<fifo_entry>,<data_port_width> | none}
-gpgpu_cache:dl1PrefShared                 none # per-shader L1 data cache config  {<sector?>:<nsets>:<bsize>:<assoc>,<rep>:<wr>:<alloc>:<wr_alloc>:<set_index_fn>,<mshr>:<N>:<merge>,<mq>:<fifo_entry>,<data_port_width> | none}
-gpgpu_gmem_skip_L1D                    0 # global memory access skip L1D cache (implements -Xptxas -dlcm=cg, default=no skip)
-gpgpu_perfect_mem                      0 # enable perfect memory mode (no cache miss)
-n_regfile_gating_group                    4 # group of lanes that should be read/written together)
-gpgpu_clock_gated_reg_file                    0 # enable clock gated reg file for power calculations
-gpgpu_clock_gated_lanes                    0 # enable clock gated lanes for power calculations
-gpgpu_shader_registers                65536 # Number of registers per shader core. Limits number of concurrent CTAs. (default 8192)
-gpgpu_registers_per_block                65536 # Maximum number of registers per CTA. (default 8192)
-gpgpu_ignore_resources_limitation                    0 # gpgpu_ignore_resources_limitation (default 0)
-gpgpu_shader_cta                      32 # Maximum number of concurrent CTAs in shader (default 32)
-gpgpu_num_cta_barriers                   16 # Maximum number of named barriers per CTA (default 16)
-gpgpu_n_clusters                      46 # number of processing clusters
-gpgpu_n_cores_per_cluster                    1 # number of simd cores per cluster
-gpgpu_n_cluster_ejection_buffer_size                   32 # number of packets in ejection buffer
-gpgpu_n_ldst_response_buffer_size                    2 # number of response packets in ld/st unit ejection buffer
-gpgpu_shmem_per_block                49152 # Size of shared memory per thread block or CTA (default 48kB)
-gpgpu_shmem_size                  102400 # Size of shared memory per shader core (default 16kB)
-gpgpu_shmem_option      0,8,16,32,64,100 # Option list of shared memory sizes
-gpgpu_unified_l1d_size                  128 # Size of unified data cache(L1D + shared memory) in KB
-gpgpu_adaptive_cache_config                    1 # adaptive_cache_config
-gpgpu_shmem_sizeDefault               102400 # Size of shared memory per shader core (default 16kB)
-gpgpu_shmem_size_PrefL1                16384 # Size of shared memory per shader core (default 16kB)
-gpgpu_shmem_size_PrefShared                16384 # Size of shared memory per shader core (default 16kB)
-gpgpu_shmem_num_banks                   16 # Number of banks in the shared memory in each shader core (default 16)
-gpgpu_shmem_limited_broadcast                    0 # Limit shared memory to do one broadcast per cycle (default on)
-gpgpu_shmem_warp_parts                    1 # Number of portions a warp is divided into for shared memory bank conflict check 
-gpgpu_mem_unit_ports                    1 # The number of memory transactions allowed per core cycle
-gpgpu_shmem_warp_parts                    1 # Number of portions a warp is divided into for shared memory bank conflict check 
-gpgpu_warpdistro_shader                   -1 # Specify which shader core to collect the warp size distribution from
-gpgpu_warp_issue_shader                    0 # Specify which shader core to collect the warp issue distribution from
-gpgpu_local_mem_map                    1 # Mapping from local memory space address to simulated GPU physical address space (default = enabled)
-gpgpu_num_reg_banks                    8 # Number of register banks (default = 8)
-gpgpu_reg_bank_use_warp_id                    0 # Use warp ID in mapping registers to banks (default = off)
-gpgpu_sub_core_model                    1 # Sub Core Volta/Pascal model (default = off)
-gpgpu_enable_specialized_operand_collector                    0 # enable_specialized_operand_collector
-gpgpu_operand_collector_num_units_sp                    4 # number of collector units (default = 4)
-gpgpu_operand_collector_num_units_dp                    0 # number of collector units (default = 0)
-gpgpu_operand_collector_num_units_sfu                    4 # number of collector units (default = 4)
-gpgpu_operand_collector_num_units_int                    0 # number of collector units (default = 0)
-gpgpu_operand_collector_num_units_tensor_core                    4 # number of collector units (default = 4)
-gpgpu_operand_collector_num_units_mem                    2 # number of collector units (default = 2)
-gpgpu_operand_collector_num_units_gen                    8 # number of collector units (default = 0)
-gpgpu_operand_collector_num_in_ports_sp                    1 # number of collector unit in ports (default = 1)
-gpgpu_operand_collector_num_in_ports_dp                    0 # number of collector unit in ports (default = 0)
-gpgpu_operand_collector_num_in_ports_sfu                    1 # number of collector unit in ports (default = 1)
-gpgpu_operand_collector_num_in_ports_int                    0 # number of collector unit in ports (default = 0)
-gpgpu_operand_collector_num_in_ports_tensor_core                    1 # number of collector unit in ports (default = 1)
-gpgpu_operand_collector_num_in_ports_mem                    1 # number of collector unit in ports (default = 1)
-gpgpu_operand_collector_num_in_ports_gen                    8 # number of collector unit in ports (default = 0)
-gpgpu_operand_collector_num_out_ports_sp                    1 # number of collector unit in ports (default = 1)
-gpgpu_operand_collector_num_out_ports_dp                    0 # number of collector unit in ports (default = 0)
-gpgpu_operand_collector_num_out_ports_sfu                    1 # number of collector unit in ports (default = 1)
-gpgpu_operand_collector_num_out_ports_int                    0 # number of collector unit in ports (default = 0)
-gpgpu_operand_collector_num_out_ports_tensor_core                    1 # number of collector unit in ports (default = 1)
-gpgpu_operand_collector_num_out_ports_mem                    1 # number of collector unit in ports (default = 1)
-gpgpu_operand_collector_num_out_ports_gen                    8 # number of collector unit in ports (default = 0)
-gpgpu_coalesce_arch                   86 # Coalescing arch (GT200 = 13, Fermi = 20)
-gpgpu_num_sched_per_core                    4 # Number of warp schedulers per core
-gpgpu_max_insn_issue_per_warp                    1 # Max number of instructions that can be issued per warp in one cycle by scheduler (either 1 or 2)
-gpgpu_dual_issue_diff_exec_units                    1 # should dual issue use two different execution unit resources (Default = 1)
-gpgpu_simt_core_sim_order                    1 # Select the simulation order of cores in a cluster (0=Fix, 1=Round-Robin)
-gpgpu_pipeline_widths 4,4,4,4,4,4,4,4,4,4,8,4,4 # Pipeline widths ID_OC_SP,ID_OC_DP,ID_OC_INT,ID_OC_SFU,ID_OC_MEM,OC_EX_SP,OC_EX_DP,OC_EX_INT,OC_EX_SFU,OC_EX_MEM,EX_WB,ID_OC_TENSOR_CORE,OC_EX_TENSOR_CORE
-gpgpu_tensor_core_avail                    1 # Tensor Core Available (default=0)
-gpgpu_num_sp_units                     4 # Number of SP units (default=1)
-gpgpu_num_dp_units                     4 # Number of DP units (default=0)
-gpgpu_num_int_units                    4 # Number of INT units (default=0)
-gpgpu_num_sfu_units                    4 # Number of SF units (default=1)
-gpgpu_num_tensor_core_units                    4 # Number of tensor_core units (default=1)
-gpgpu_num_mem_units                    1 # Number if ldst units (default=1) WARNING: not hooked up to anything
-gpgpu_scheduler                      lrr # Scheduler configuration: < lrr | gto | two_level_active > If two_level_active:<num_active_warps>:<inner_prioritization>:<outer_prioritization>For complete list of prioritization values see shader.h enum scheduler_prioritization_typeDefault: gto
-gpgpu_concurrent_kernel_sm                    0 # Support concurrent kernels on a SM (default = disabled)
-gpgpu_perfect_inst_const_cache                    1 # perfect inst and const cache mode, so all inst and const hits in the cache(default = disabled)
-gpgpu_inst_fetch_throughput                    4 # the number of fetched intruction per warp each cycle
-gpgpu_reg_file_port_throughput                    2 # the number ports of the register file
-specialized_unit_1         0,4,4,4,4,BRA # specialized unit config {<enabled>,<num_units>:<latency>:<initiation>,<ID_OC_SPEC>:<OC_EX_SPEC>,<NAME>}
-specialized_unit_2         0,4,4,4,4,BRA # specialized unit config {<enabled>,<num_units>:<latency>:<initiation>,<ID_OC_SPEC>:<OC_EX_SPEC>,<NAME>}
-specialized_unit_3         0,4,4,4,4,BRA # specialized unit config {<enabled>,<num_units>:<latency>:<initiation>,<ID_OC_SPEC>:<OC_EX_SPEC>,<NAME>}
-specialized_unit_4         0,4,4,4,4,BRA # specialized unit config {<enabled>,<num_units>:<latency>:<initiation>,<ID_OC_SPEC>:<OC_EX_SPEC>,<NAME>}
-specialized_unit_5         0,4,4,4,4,BRA # specialized unit config {<enabled>,<num_units>:<latency>:<initiation>,<ID_OC_SPEC>:<OC_EX_SPEC>,<NAME>}
-specialized_unit_6         0,4,4,4,4,BRA # specialized unit config {<enabled>,<num_units>:<latency>:<initiation>,<ID_OC_SPEC>:<OC_EX_SPEC>,<NAME>}
-specialized_unit_7         0,4,4,4,4,BRA # specialized unit config {<enabled>,<num_units>:<latency>:<initiation>,<ID_OC_SPEC>:<OC_EX_SPEC>,<NAME>}
-specialized_unit_8         0,4,4,4,4,BRA # specialized unit config {<enabled>,<num_units>:<latency>:<initiation>,<ID_OC_SPEC>:<OC_EX_SPEC>,<NAME>}
-gpgpu_perf_sim_memcpy                    1 # Fill the L2 cache on memcpy
-gpgpu_simple_dram_model                    0 # simple_dram_model with fixed latency and BW
-gpgpu_dram_scheduler                    1 # 0 = fifo, 1 = FR-FCFS (defaul)
-gpgpu_dram_partition_queues          64:64:64:64 # i2$:$2d:d2$:$2i
-l2_ideal                               0 # Use a ideal L2 cache that always hit
-gpgpu_cache:dl2     S:64:128:16,L:B:m:L:P,A:192:4,32:0,32 # unified banked L2 data cache config  {<sector?>:<nsets>:<bsize>:<assoc>,<rep>:<wr>:<alloc>:<wr_alloc>:<set_index_fn>,<mshr>:<N>:<merge>,<mq>:<fifo_entry>,<data_port_width>
-gpgpu_cache:dl2_texture_only                    0 # L2 cache used for texture only
-gpgpu_n_mem                           16 # number of memory modules (e.g. memory controllers) in gpu
-gpgpu_n_sub_partition_per_mchannel                    2 # number of memory subpartition in each memory module
-gpgpu_n_mem_per_ctrlr                    1 # number of memory chips per memory controller
-gpgpu_memlatency_stat                   14 # track and display latency statistics 0x2 enables MC, 0x4 enables queue logs
-gpgpu_frfcfs_dram_sched_queue_size                   64 # 0 = unlimited (default); # entries per chip
-gpgpu_dram_return_queue_size                  192 # 0 = unlimited (default); # entries per chip
-gpgpu_dram_buswidth                    2 # default = 4 bytes (8 bytes per cycle at DDR)
-gpgpu_dram_burst_length                   16 # Burst length of each DRAM request (default = 4 data bus cycle)
-dram_data_command_freq_ratio                    4 # Frequency ratio between DRAM data bus and command bus (default = 2 times, i.e. DDR)
-gpgpu_dram_timing_opt nbk=16:CCD=4:RRD=12:RCD=24:RAS=55:RP=24:RC=78:CL=24:WL=8:CDLR=10:WR=24:nbkgrp=4:CCDL=6:RTPL=4 # DRAM timing parameters = {nbk:tCCD:tRRD:tRCD:tRAS:tRP:tRC:CL:WL:tCDLR:tWR:nbkgrp:tCCDL:tRTPL}
-gpgpu_l2_rop_latency                  187 # ROP queue latency (default 85)
-dram_latency                         254 # DRAM latency (default 30)
-dram_dual_bus_interface                    0 # dual_bus_interface (default = 0) 
-dram_bnk_indexing_policy                    0 # dram_bnk_indexing_policy (0 = normal indexing, 1 = Xoring with the higher bits) (Default = 0)
-dram_bnkgrp_indexing_policy                    1 # dram_bnkgrp_indexing_policy (0 = take higher bits, 1 = take lower bits) (Default = 0)
-dram_seperate_write_queue_enable                    0 # Seperate_Write_Queue_Enable
-dram_write_queue_size             32:28:16 # Write_Queue_Size
-dram_elimnate_rw_turnaround                    0 # elimnate_rw_turnaround i.e set tWTR and tRTW = 0
-icnt_flit_size                        40 # icnt_flit_size
-SST_mode                               0 # SST mode
-gpgpu_mem_addr_mapping dramid@8;00000000.00000000.00000000.00000000.0000RRRR.RRRRRRRR.RBBBCCCC.BCCSSSSS # mapping memory address to dram model {dramid@<start bit>;<memory address map>}
-gpgpu_mem_addr_test                    0 # run sweep test to check address mapping for aliased address
-gpgpu_mem_address_mask                    1 # 0 = old addressing mask, 1 = new addressing mask, 2 = new add. mask + flipped bank sel and chip sel bits
-gpgpu_memory_partition_indexing                    2 # 0 = no indexing, 1 = bitwise xoring, 2 = IPoly, 3 = custom indexing
-accelwattch_xml_file accelwattch_sass_sim.xml # AccelWattch XML file
-power_simulation_enabled                    0 # Turn on power simulator (1=On, 0=Off)
-power_per_cycle_dump                    0 # Dump detailed power output each cycle
-hw_perf_file_name            hw_perf.csv # Hardware Performance Statistics file
-hw_perf_bench_name                       # Kernel Name in Hardware Performance Statistics file
-power_simulation_mode                    0 # Switch performance counter input for power simulation (0=Sim, 1=HW, 2=HW-Sim Hybrid)
-dvfs_enabled                           0 # Turn on DVFS for power model
-aggregate_power_stats                    0 # Accumulate power across all kernels
-accelwattch_hybrid_perfsim_L1_RH                    0 # Get L1 Read Hits for Accelwattch-Hybrid from Accel-Sim
-accelwattch_hybrid_perfsim_L1_RM                    0 # Get L1 Read Misses for Accelwattch-Hybrid from Accel-Sim
-accelwattch_hybrid_perfsim_L1_WH                    0 # Get L1 Write Hits for Accelwattch-Hybrid from Accel-Sim
-accelwattch_hybrid_perfsim_L1_WM                    0 # Get L1 Write Misses for Accelwattch-Hybrid from Accel-Sim
-accelwattch_hybrid_perfsim_L2_RH                    0 # Get L2 Read Hits for Accelwattch-Hybrid from Accel-Sim
-accelwattch_hybrid_perfsim_L2_RM                    0 # Get L2 Read Misses for Accelwattch-Hybrid from Accel-Sim
-accelwattch_hybrid_perfsim_L2_WH                    0 # Get L2 Write Hits for Accelwattch-Hybrid from Accel-Sim
-accelwattch_hybrid_perfsim_L2_WM                    0 # Get L2 Write Misses for Accelwattch-Hybrid from Accel-Sim
-accelwattch_hybrid_perfsim_CC_ACC                    0 # Get Constant Cache Acesses for Accelwattch-Hybrid from Accel-Sim
-accelwattch_hybrid_perfsim_SHARED_ACC                    0 # Get Shared Memory Acesses for Accelwattch-Hybrid from Accel-Sim
-accelwattch_hybrid_perfsim_DRAM_RD                    0 # Get DRAM Reads for Accelwattch-Hybrid from Accel-Sim
-accelwattch_hybrid_perfsim_DRAM_WR                    0 # Get DRAM Writes for Accelwattch-Hybrid from Accel-Sim
-accelwattch_hybrid_perfsim_NOC                    0 # Get Interconnect Acesses for Accelwattch-Hybrid from Accel-Sim
-accelwattch_hybrid_perfsim_PIPE_DUTY                    0 # Get Pipeline Duty Cycle Acesses for Accelwattch-Hybrid from Accel-Sim
-accelwattch_hybrid_perfsim_NUM_SM_IDLE                    0 # Get Number of Idle SMs for Accelwattch-Hybrid from Accel-Sim
-accelwattch_hybrid_perfsim_CYCLES                    0 # Get Executed Cycles for Accelwattch-Hybrid from Accel-Sim
-accelwattch_hybrid_perfsim_VOLTAGE                    0 # Get Chip Voltage for Accelwattch-Hybrid from Accel-Sim
-power_trace_enabled                    0 # produce a file for the power trace (1=On, 0=Off)
-power_trace_zlevel                     6 # Compression level of the power trace output log (0=no comp, 9=highest)
-steady_power_levels_enabled                    0 # produce a file for the steady power levels (1=On, 0=Off)
-steady_state_definition                  8:4 # allowed deviation:number of samples
-gpgpu_max_cycle                        0 # terminates gpu simulation early (0 = no limit)
-gpgpu_max_insn                         0 # terminates gpu simulation early (0 = no limit)
-gpgpu_max_cta                          0 # terminates gpu simulation early (0 = no limit)
-gpgpu_max_completed_cta                    0 # terminates gpu simulation early (0 = no limit)
-gpgpu_runtime_stat                   500 # display runtime statistics such as dram utilization {<freq>:<flag>}
-liveness_message_freq                    1 # Minimum number of seconds between simulation liveness messages (0 = always print)
-gpgpu_compute_capability_major                    8 # Major compute capability version number
-gpgpu_compute_capability_minor                    6 # Minor compute capability version number
-gpgpu_flush_l1_cache                    1 # Flush L1 cache at the end of each kernel call
-gpgpu_flush_l2_cache                    0 # Flush L2 cache at the end of each kernel call
-gpgpu_deadlock_detect                    1 # Stop the simulation at deadlock (1=on (default), 0=off)
-gpgpu_ptx_instruction_classification                    0 # if enabled will classify ptx instruction types per kernel (Max 255 kernels now)
-gpgpu_ptx_sim_mode                     0 # Select between Performance (default) or Functional simulation (1)
-gpgpu_clock_domains 1132:1132:1132:3500.5 # Clock Domain Frequencies in MhZ {<Core Clock>:<ICNT Clock>:<L2 Clock>:<DRAM Clock>}
-gpgpu_max_concurrent_kernel                  128 # maximum kernels that can run concurrently on GPU, set this value according to max resident grids for your compute capability
-gpgpu_cflog_interval                    0 # Interval between each snapshot in control flow logger
-visualizer_enabled                     0 # Turn on visualizer output (1=On, 0=Off)
-visualizer_outputfile                 NULL # Specifies the output log file for visualizer
-visualizer_zlevel                      6 # Compression level of the visualizer output log (0=no comp, 9=highest)
-gpgpu_stack_size_limit                 1024 # GPU thread stack size
-gpgpu_heap_size_limit              8388608 # GPU malloc heap size 
-gpgpu_runtime_sync_depth_limit                    2 # GPU device runtime synchronize depth
-gpgpu_runtime_pending_launch_count_limit                 2048 # GPU device runtime pending launch count
-trace_enabled                          0 # Turn on traces
-trace_components                    none # comma seperated list of traces to enable. Complete list found in trace_streams.tup. Default none
-trace_sampling_core                    0 # The core which is printed using CORE_DPRINTF. Default 0
-trace_sampling_memory_partition                   -1 # The memory partition which is printed using MEMPART_DPRINTF. Default -1 (i.e. all)
-enable_ptx_file_line_stats                    1 # Turn on PTX source line statistic profiling. (1 = On)
-ptx_line_stats_filename gpgpu_inst_stats.txt # Output file for PTX source line statistics.
-gpgpu_kernel_launch_latency                 5000 # Kernel launch latency in cycles. Default: 0
-gpgpu_cdp_enabled                      0 # Turn on CDP
-gpgpu_TB_launch_latency         9e68b2fa7c5950fe130434caed2df35b  /home/vikas_maurya/GPU_prgm/attention_naive/aten
Extracting PTX file and ptxas options    1: aten.1.sm_86.ptx -arch=sm_86 
           0 # thread block launch latency in cycles. Default: 0
DRAM Timing Options:
nbk                                    16 # number of banks
CCD                                     4 # column to column delay
RRD                                    12 # minimal delay between activation of rows in different banks
RCD                                    24 # row to column delay
RAS                                    55 # time needed to activate row
RP                                     24 # time needed to precharge (deactivate) row
RC                                     78 # row cycle time
CDLR                                   10 # switching from write to read (changes tWTR)
WR                                     24 # last data-in to row precharge
CL                                     24 # CAS latency
WL                                      8 # Write latency
nbkgrp                                  4 # number of bank groups
CCDL                                    6 # column to column delay between accesses to different bank groups
RTPL                                    4 # read to precharge delay between accesses to different bank groups
Total number of memory sub partition = 32
addr_dec_mask[CHIP]  = 0000000000000f00 	high:12 low:8
addr_dec_mask[BK]    = 0000000000070080 	high:19 low:7
addr_dec_mask[ROW]   = 00000000fff80000 	high:32 low:19
addr_dec_mask[COL]   = 000000000000f07f 	high:16 low:0
addr_dec_mask[BURST] = 000000000000001f 	high:5 low:0
sub_partition_id_mask = 0000000000000080
GPGPU-Sim uArch: clock freqs: 1132000000.000000:1132000000.000000:1132000000.000000:3500500000.000000
GPGPU-Sim uArch: clock periods: 0.00000000088339222615:0.00000000088339222615:0.00000000088339222615:0.00000000028567347522
*** Initializing Memory Statistics ***
GPGPU-Sim uArch: performance model initialization complete.
Warning: CUDA version mismatch (app: 12080, sim: 12) — ignoring
GPGPU-Sim PTX: __cudaRegisterFatBinary, fat_cubin_handle = 1, filename=default
self exe links to: /home/vikas_maurya/GPU_prgm/attention_naive/aten
Running md5sum using "md5sum /home/vikas_maurya/GPU_prgm/attention_naive/aten "
self exe links to: /home/vikas_maurya/GPU_prgm/attention_naive/aten
Extracting specific PTX file named aten.1.sm_86.ptx 
GPGPU-Sim PTX: __cudaRegisterFunction _Z14softmax_kernelPfS_ii : hostFun 0x0x58883188eb37, fat_cubin_handle = 1
GPGPU-Sim PTX: Parsing aten.1.sm_86.ptx
GPGPU-Sim PTX: allocating shared region for "sdata" from 0x0 to 0x0 (shared memory space)
GPGPU-Sim PTX: allocating shared region for "_ZZ10gemm_tiledPfS_S_iiiE2As" from 0x0 to 0x1000 (shared memory space)
GPGPU-Sim PTX: allocating shared region for "_ZZ10gemm_tiledPfS_S_iiiE2Bs" from 0x1000 to 0x2000 (shared memory space)
GPGPU-Sim PTX: instruction assembly for function '_Z10gemm_tiledPfS_S_iii'...   done.
GPGPU-Sim PTX: instruction assembly for function '_Z14softmax_kernelPfS_ii'...   done.
GPGPU-Sim PTX: finished parsing EMBEDDED .ptx file aten.1.sm_86.ptx
GPGPU-Sim PTX: loading globals with explicit initializers... 
GPGPU-Sim PTX: finished loading globals (0 bytes total).
GPGPU-Sim PTX: loading constants with explicit initializers...  done.
GPGPU-Sim PTX: Loading PTXInfo from aten.1.sm_86.ptx
GPGPU-Sim PTX: Kernel '_Z14softmax_kernelPfS_ii' : regs=20, lmem=0, smem=0, cmem=376
GPGPU-Sim PTX: Binary info : gmem=0, cmem=0
GPGPU-Sim PTX: Kernel '_Z10gemm_tiledPfS_S_iii' : regs=38, lmem=0, smem=8192, cmem=388
GPGPU-Sim PTX: Binary info : gmem=0, cmem=0
GPGPU-Sim PTX: __cudaRegisterFunction _Z10gemm_tiledPfS_S_iii : hostFun 0x0x58883188e97a, fat_cubin_handle = 1
--- NAIVE ATTENTION BASELINE ---
GPGPU-Sim PTX: Setting up arguments for 8 bytes starting at 0x7ffc3a87f8a8..
GPGPU-Sim PTX: Setting up arguments for 8 bytes starting at 0x7ffc3a87f8a0..
GPGPU-Sim PTX: Setting up arguments for 8 bytes starting at 0x7ffc3a87f898..
GPGPU-Sim PTX: Setting up arguments for 4 bytes starting at 0x7ffc3a87f894..
GPGPU-Sim PTX: Setting up arguments for 4 bytes starting at 0x7ffc3a87f890..
GPGPU-Sim PTX: Setting up arguments for 4 bytes starting at 0x7ffc3a87f88c..

GPGPU-Sim PTX: cudaLaunch for 0x0x58883188e97a (mode=performance simulation) on stream 0
GPGPU-Sim PTX: finding reconvergence points for '_Z10gemm_tiledPfS_S_iii'...
GPGPU-Sim PTX: Finding dominators for '_Z10gemm_tiledPfS_S_iii'...
GPGPU-Sim PTX: Finding immediate dominators for '_Z10gemm_tiledPfS_S_iii'...
GPGPU-Sim PTX: Finding postdominators for '_Z10gemm_tiledPfS_S_iii'...
GPGPU-Sim PTX: Finding immediate postdominators for '_Z10gemm_tiledPfS_S_iii'...
GPGPU-Sim PTX: pre-decoding instructions for '_Z10gemm_tiledPfS_S_iii'...
GPGPU-Sim PTX: reconvergence points for _Z10gemm_tiledPfS_S_iii...
GPGPU-Sim PTX:  1 (potential) branch divergence @  PC=0x080 (aten.1.sm_86.ptx:52) @%p1 bra $L__BB0_7;
GPGPU-Sim PTX:    immediate post dominator      @  PC=0x518 (aten.1.sm_86.ptx:210) setp.ge.s32 %p9, %r5, %r21;
GPGPU-Sim PTX:  2 (potential) branch divergence @  PC=0x168 (aten.1.sm_86.ptx:84) @%p4 bra $L__BB0_4;
GPGPU-Sim PTX:    immediate post dominator      @  PC=0x178 (aten.1.sm_86.ptx:89) st.shared.f32 [%r6], %f108;
GPGPU-Sim PTX:  3 (potential) branch divergence @  PC=0x1a0 (aten.1.sm_86.ptx:94) @%p7 bra $L__BB0_6;
GPGPU-Sim PTX:    immediate post dominator      @  PC=0x1c0 (aten.1.sm_86.ptx:101) st.shared.f32 [%r7], %f109;
GPGPU-Sim PTX:  4 (potential) branch divergence @  PC=0x510 (aten.1.sm_86.ptx:207) @%p8 bra $L__BB0_2;
GPGPU-Sim PTX:    immediate post dominator      @  PC=0x518 (aten.1.sm_86.ptx:210) setp.ge.s32 %p9, %r5, %r21;
GPGPU-Sim PTX:  5 (potential) branch divergence @  PC=0x530 (aten.1.sm_86.ptx:213) @%p11 bra $L__BB0_9;
GPGPU-Sim PTX:    immediate post dominator      @  PC=0x560 (aten.1.sm_86.ptx:222) ret;
GPGPU-Sim PTX: ... end of reconvergence points for _Z10gemm_tiledPfS_S_iii
GPGPU-Sim PTX: ... done pre-decoding instructions for '_Z10gemm_tiledPfS_S_iii'.
GPGPU-Sim PTX: pushing kernel '_Z10gemm_tiledPfS_S_iii' to stream 0, gridDim= (32,32,1) blockDim = (32,32,1) 
GPGPU-Sim uArch: Shader 0 bind to kernel 1 '_Z10gemm_tiledPfS_S_iii'
GPGPU-Sim uArch: CTA/core = 1, limited by: threads regs
GPGPU-Sim: Reconfigure L1 cache to 120KB
GPGPU-Sim uArch: Shader 1 bind to kernel 1 '_Z10gemm_tiledPfS_S_iii'
GPGPU-Sim uArch: Shader 2 bind to kernel 1 '_Z10gemm_tiledPfS_S_iii'
GPGPU-Sim uArch: Shader 3 bind to kernel 1 '_Z10gemm_tiledPfS_S_iii'
GPGPU-Sim uArch: Shader 4 bind to kernel 1 '_Z10gemm_tiledPfS_S_iii'
GPGPU-Sim uArch: Shader 5 bind to kernel 1 '_Z10gemm_tiledPfS_S_iii'
GPGPU-Sim uArch: Shader 6 bind to kernel 1 '_Z10gemm_tiledPfS_S_iii'
GPGPU-Sim uArch: Shader 7 bind to kernel 1 '_Z10gemm_tiledPfS_S_iii'
GPGPU-Sim uArch: Shader 8 bind to kernel 1 '_Z10gemm_tiledPfS_S_iii'
GPGPU-Sim uArch: Shader 9 bind to kernel 1 '_Z10gemm_tiledPfS_S_iii'
GPGPU-Sim uArch: Shader 10 bind to kernel 1 '_Z10gemm_tiledPfS_S_iii'
GPGPU-Sim uArch: Shader 11 bind to kernel 1 '_Z10gemm_tiledPfS_S_iii'
GPGPU-Sim uArch: Shader 12 bind to kernel 1 '_Z10gemm_tiledPfS_S_iii'
GPGPU-Sim uArch: Shader 13 bind to kernel 1 '_Z10gemm_tiledPfS_S_iii'
GPGPU-Sim uArch: Shader 14 bind to kernel 1 '_Z10gemm_tiledPfS_S_iii'
GPGPU-Sim uArch: Shader 15 bind to kernel 1 '_Z10gemm_tiledPfS_S_iii'
GPGPU-Sim uArch: Shader 16 bind to kernel 1 '_Z10gemm_tiledPfS_S_iii'
GPGPU-Sim uArch: Shader 17 bind to kernel 1 '_Z10gemm_tiledPfS_S_iii'
GPGPU-Sim uArch: Shader 18 bind to kernel 1 '_Z10gemm_tiledPfS_S_iii'
GPGPU-Sim uArch: Shader 19 bind to kernel 1 '_Z10gemm_tiledPfS_S_iii'
GPGPU-Sim uArch: Shader 20 bind to kernel 1 '_Z10gemm_tiledPfS_S_iii'
GPGPU-Sim uArch: Shader 21 bind to kernel 1 '_Z10gemm_tiledPfS_S_iii'
GPGPU-Sim uArch: Shader 22 bind to kernel 1 '_Z10gemm_tiledPfS_S_iii'
GPGPU-Sim uArch: Shader 23 bind to kernel 1 '_Z10gemm_tiledPfS_S_iii'
GPGPU-Sim uArch: Shader 24 bind to kernel 1 '_Z10gemm_tiledPfS_S_iii'
GPGPU-Sim uArch: Shader 25 bind to kernel 1 '_Z10gemm_tiledPfS_S_iii'
GPGPU-Sim uArch: Shader 26 bind to kernel 1 '_Z10gemm_tiledPfS_S_iii'
GPGPU-Sim uArch: Shader 27 bind to kernel 1 '_Z10gemm_tiledPfS_S_iii'
GPGPU-Sim uArch: Shader 28 bind to kernel 1 '_Z10gemm_tiledPfS_S_iii'
GPGPU-Sim uArch: Shader 29 bind to kernel 1 '_Z10gemm_tiledPfS_S_iii'
GPGPU-Sim uArch: Shader 30 bind to kernel 1 '_Z10gemm_tiledPfS_S_iii'
GPGPU-Sim uArch: Shader 31 bind to kernel 1 '_Z10gemm_tiledPfS_S_iii'
GPGPU-Sim uArch: Shader 32 bind to kernel 1 '_Z10gemm_tiledPfS_S_iii'
GPGPU-Sim uArch: Shader 33 bind to kernel 1 '_Z10gemm_tiledPfS_S_iii'
GPGPU-Sim uArch: Shader 34 bind to kernel 1 '_Z10gemm_tiledPfS_S_iii'
GPGPU-Sim uArch: Shader 35 bind to kernel 1 '_Z10gemm_tiledPfS_S_iii'
GPGPU-Sim uArch: Shader 36 bind to kernel 1 '_Z10gemm_tiledPfS_S_iii'
GPGPU-Sim uArch: Shader 37 bind to kernel 1 '_Z10gemm_tiledPfS_S_iii'
GPGPU-Sim uArch: Shader 38 bind to kernel 1 '_Z10gemm_tiledPfS_S_iii'
GPGPU-Sim uArch: Shader 39 bind to kernel 1 '_Z10gemm_tiledPfS_S_iii'
GPGPU-Sim uArch: Shader 40 bind to kernel 1 '_Z10gemm_tiledPfS_S_iii'
GPGPU-Sim uArch: Shader 41 bind to kernel 1 '_Z10gemm_tiledPfS_S_iii'
GPGPU-Sim uArch: Shader 42 bind to kernel 1 '_Z10gemm_tiledPfS_S_iii'
GPGPU-Sim uArch: Shader 43 bind to kernel 1 '_Z10gemm_tiledPfS_S_iii'
GPGPU-Sim uArch: Shader 44 bind to kernel 1 '_Z10gemm_tiledPfS_S_iii'
GPGPU-Sim uArch: Shader 45 bind to kernel 1 '_Z10gemm_tiledPfS_S_iii'
GPGPU-Sim uArch: Shader 33 bind to kernel 1 '_Z10gemm_tiledPfS_S_iii'
GPGPU-Sim uArch: Shader 35 bind to kernel 1 '_Z10gemm_tiledPfS_S_iii'
GPGPU-Sim uArch: Shader 28 bind to kernel 1 '_Z10gemm_tiledPfS_S_iii'
GPGPU-Sim uArch: Shader 6 bind to kernel 1 '_Z10gemm_tiledPfS_S_iii'
GPGPU-Sim uArch: Shader 37 bind to kernel 1 '_Z10gemm_tiledPfS_S_iii'
GPGPU-Sim uArch: Shader 45 bind to kernel 1 '_Z10gemm_tiledPfS_S_iii'
GPGPU-Sim uArch: Shader 44 bind to kernel 1 '_Z10gemm_tiledPfS_S_iii'
GPGPU-Sim uArch: Shader 39 bind to kernel 1 '_Z10gemm_tiledPfS_S_iii'
GPGPU-Sim uArch: Shader 16 bind to kernel 1 '_Z10gemm_tiledPfS_S_iii'
GPGPU-Sim uArch: Shader 40 bind to kernel 1 '_Z10gemm_tiledPfS_S_iii'
GPGPU-Sim uArch: Shader 10 bind to kernel 1 '_Z10gemm_tiledPfS_S_iii'
GPGPU-Sim uArch: Shader 41 bind to kernel 1 '_Z10gemm_tiledPfS_S_iii'
GPGPU-Sim uArch: Shader 32 bind to kernel 1 '_Z10gemm_tiledPfS_S_iii'
GPGPU-Sim uArch: Shader 18 bind to kernel 1 '_Z10gemm_tiledPfS_S_iii'
GPGPU-Sim uArch: Shader 30 bind to kernel 1 '_Z10gemm_tiledPfS_S_iii'
GPGPU-Sim uArch: Shader 38 bind to kernel 1 '_Z10gemm_tiledPfS_S_iii'
GPGPU-Sim uArch: Shader 26 bind to kernel 1 '_Z10gemm_tiledPfS_S_iii'
GPGPU-Sim uArch: Shader 14 bind to kernel 1 '_Z10gemm_tiledPfS_S_iii'
GPGPU-Sim uArch: Shader 36 bind to kernel 1 '_Z10gemm_tiledPfS_S_iii'
GPGPU-Sim uArch: Shader 7 bind to kernel 1 '_Z10gemm_tiledPfS_S_iii'
GPGPU-Sim uArch: Shader 2 bind to kernel 1 '_Z10gemm_tiledPfS_S_iii'
GPGPU-Sim uArch: Shader 34 bind to kernel 1 '_Z10gemm_tiledPfS_S_iii'
GPGPU-Sim uArch: Shader 22 bind to kernel 1 '_Z10gemm_tiledPfS_S_iii'
GPGPU-Sim uArch: Shader 4 bind to kernel 1 '_Z10gemm_tiledPfS_S_iii'
GPGPU-Sim uArch: Shader 24 bind to kernel 1 '_Z10gemm_tiledPfS_S_iii'
GPGPU-Sim uArch: Shader 17 bind to kernel 1 '_Z10gemm_tiledPfS_S_iii'
GPGPU-Sim uArch: Shader 13 bind to kernel 1 '_Z10gemm_tiledPfS_S_iii'
GPGPU-Sim uArch: Shader 19 bind to kernel 1 '_Z10gemm_tiledPfS_S_iii'
GPGPU-Sim uArch: Shader 20 bind to kernel 1 '_Z10gemm_tiledPfS_S_iii'
GPGPU-Sim uArch: Shader 0 bind to kernel 1 '_Z10gemm_tiledPfS_S_iii'
GPGPU-Sim uArch: Shader 42 bind to kernel 1 '_Z10gemm_tiledPfS_S_iii'
GPGPU-Sim uArch: Shader 12 bind to kernel 1 '_Z10gemm_tiledPfS_S_iii'
GPGPU-Sim uArch: Shader 43 bind to kernel 1 '_Z10gemm_tiledPfS_S_iii'
GPGPU-Sim uArch: Shader 8 bind to kernel 1 '_Z10gemm_tiledPfS_S_iii'
GPGPU-Sim uArch: Shader 25 bind to kernel 1 '_Z10gemm_tiledPfS_S_iii'
GPGPU-Sim uArch: Shader 31 bind to kernel 1 '_Z10gemm_tiledPfS_S_iii'
GPGPU-Sim uArch: Shader 11 bind to kernel 1 '_Z10gemm_tiledPfS_S_iii'
GPGPU-Sim uArch: Shader 15 bind to kernel 1 '_Z10gemm_tiledPfS_S_iii'
GPGPU-Sim uArch: Shader 23 bind to kernel 1 '_Z10gemm_tiledPfS_S_iii'
GPGPU-Sim uArch: Shader 5 bind to kernel 1 '_Z10gemm_tiledPfS_S_iii'
GPGPU-Sim uArch: Shader 9 bind to kernel 1 '_Z10gemm_tiledPfS_S_iii'
GPGPU-Sim uArch: Shader 27 bind to kernel 1 '_Z10gemm_tiledPfS_S_iii'
GPGPU-Sim uArch: Shader 21 bind to kernel 1 '_Z10gemm_tiledPfS_S_iii'
GPGPU-Sim uArch: Shader 1 bind to kernel 1 '_Z10gemm_tiledPfS_S_iii'
GPGPU-Sim uArch: Shader 29 bind to kernel 1 '_Z10gemm_tiledPfS_S_iii'
GPGPU-Sim uArch: Shader 3 bind to kernel 1 '_Z10gemm_tiledPfS_S_iii'
GPGPU-Sim uArch: Shader 37 bind to kernel 1 '_Z10gemm_tiledPfS_S_iii'
GPGPU-Sim uArch: Shader 33 bind to kernel 1 '_Z10gemm_tiledPfS_S_iii'
GPGPU-Sim uArch: Shader 35 bind to kernel 1 '_Z10gemm_tiledPfS_S_iii'
GPGPU-Sim uArch: Shader 2 bind to kernel 1 '_Z10gemm_tiledPfS_S_iii'
GPGPU-Sim uArch: Shader 39 bind to kernel 1 '_Z10gemm_tiledPfS_S_iii'
GPGPU-Sim uArch: Shader 45 bind to kernel 1 '_Z10gemm_tiledPfS_S_iii'
GPGPU-Sim uArch: Shader 32 bind to kernel 1 '_Z10gemm_tiledPfS_S_iii'
GPGPU-Sim uArch: Shader 44 bind to kernel 1 '_Z10gemm_tiledPfS_S_iii'
GPGPU-Sim uArch: Shader 41 bind to kernel 1 '_Z10gemm_tiledPfS_S_iii'
GPGPU-Sim uArch: Shader 38 bind to kernel 1 '_Z10gemm_tiledPfS_S_iii'
GPGPU-Sim uArch: Shader 6 bind to kernel 1 '_Z10gemm_tiledPfS_S_iii'
GPGPU-Sim uArch: Shader 40 bind to kernel 1 '_Z10gemm_tiledPfS_S_iii'
GPGPU-Sim uArch: Shader 28 bind to kernel 1 '_Z10gemm_tiledPfS_S_iii'
GPGPU-Sim uArch: Shader 12 bind to kernel 1 '_Z10gemm_tiledPfS_S_iii'
GPGPU-Sim uArch: Shader 36 bind to kernel 1 '_Z10gemm_tiledPfS_S_iii'
GPGPU-Sim uArch: Shader 30 bind to kernel 1 '_Z10gemm_tiledPfS_S_iii'
GPGPU-Sim uArch: Shader 22 bind to kernel 1 '_Z10gemm_tiledPfS_S_iii'
GPGPU-Sim uArch: Shader 18 bind to kernel 1 '_Z10gemm_tiledPfS_S_iii'
GPGPU-Sim uArch: Shader 10 bind to kernel 1 '_Z10gemm_tiledPfS_S_iii'
GPGPU-Sim uArch: Shader 24 bind to kernel 1 '_Z10gemm_tiledPfS_S_iii'
GPGPU-Sim uArch: Shader 26 bind to kernel 1 '_Z10gemm_tiledPfS_S_iii'
GPGPU-Sim uArch: Shader 42 bind to kernel 1 '_Z10gemm_tiledPfS_S_iii'
GPGPU-Sim uArch: Shader 43 bind to kernel 1 '_Z10gemm_tiledPfS_S_iii'
GPGPU-Sim uArch: Shader 20 bind to kernel 1 '_Z10gemm_tiledPfS_S_iii'
GPGPU-Sim uArch: Shader 16 bind to kernel 1 '_Z10gemm_tiledPfS_S_iii'
GPGPU-Sim uArch: Shader 0 bind to kernel 1 '_Z10gemm_tiledPfS_S_iii'
GPGPU-Sim uArch: Shader 13 bind to kernel 1 '_Z10gemm_tiledPfS_S_iii'
GPGPU-Sim uArch: Shader 17 bind to kernel 1 '_Z10gemm_tiledPfS_S_iii'
GPGPU-Sim uArch: Shader 19 bind to kernel 1 '_Z10gemm_tiledPfS_S_iii'
GPGPU-Sim uArch: Shader 14 bind to kernel 1 '_Z10gemm_tiledPfS_S_iii'
GPGPU-Sim uArch: Shader 11 bind to kernel 1 '_Z10gemm_tiledPfS_S_iii'
GPGPU-Sim uArch: Shader 34 bind to kernel 1 '_Z10gemm_tiledPfS_S_iii'
GPGPU-Sim uArch: Shader 23 bind to kernel 1 '_Z10gemm_tiledPfS_S_iii'
GPGPU-Sim uArch: Shader 15 bind to kernel 1 '_Z10gemm_tiledPfS_S_iii'
GPGPU-Sim uArch: Shader 7 bind to kernel 1 '_Z10gemm_tiledPfS_S_iii'
GPGPU-Sim uArch: Shader 25 bind to kernel 1 '_Z10gemm_tiledPfS_S_iii'
GPGPU-Sim uArch: Shader 4 bind to kernel 1 '_Z10gemm_tiledPfS_S_iii'
GPGPU-Sim uArch: Shader 5 bind to kernel 1 '_Z10gemm_tiledPfS_S_iii'
GPGPU-Sim uArch: Shader 9 bind to kernel 1 '_Z10gemm_tiledPfS_S_iii'
GPGPU-Sim uArch: Shader 21 bind to kernel 1 '_Z10gemm_tiledPfS_S_iii'
GPGPU-Sim uArch: Shader 31 bind to kernel 1 '_Z10gemm_tiledPfS_S_iii'
GPGPU-Sim uArch: Shader 1 bind to kernel 1 '_Z10gemm_tiledPfS_S_iii'
GPGPU-Sim uArch: Shader 27 bind to kernel 1 '_Z10gemm_tiledPfS_S_iii'
GPGPU-Sim uArch: Shader 8 bind to kernel 1 '_Z10gemm_tiledPfS_S_iii'
GPGPU-Sim uArch: Shader 3 bind to kernel 1 '_Z10gemm_tiledPfS_S_iii'
GPGPU-Sim uArch: Shader 29 bind to kernel 1 '_Z10gemm_tiledPfS_S_iii'
GPGPU-Sim uArch: Shader 2 bind to kernel 1 '_Z10gemm_tiledPfS_S_iii'
GPGPU-Sim uArch: Shader 33 bind to kernel 1 '_Z10gemm_tiledPfS_S_iii'
GPGPU-Sim uArch: Shader 6 bind to kernel 1 '_Z10gemm_tiledPfS_S_iii'
GPGPU-Sim uArch: Shader 35 bind to kernel 1 '_Z10gemm_tiledPfS_S_iii'
GPGPU-Sim uArch: Shader 37 bind to kernel 1 '_Z10gemm_tiledPfS_S_iii'
GPGPU-Sim uArch: Shader 39 bind to kernel 1 '_Z10gemm_tiledPfS_S_iii'
GPGPU-Sim uArch: Shader 41 bind to kernel 1 '_Z10gemm_tiledPfS_S_iii'
GPGPU-Sim uArch: Shader 44 bind to kernel 1 '_Z10gemm_tiledPfS_S_iii'
GPGPU-Sim uArch: Shader 40 bind to kernel 1 '_Z10gemm_tiledPfS_S_iii'
GPGPU-Sim uArch: Shader 30 bind to kernel 1 '_Z10gemm_tiledPfS_S_iii'
GPGPU-Sim uArch: Shader 32 bind to kernel 1 '_Z10gemm_tiledPfS_S_iii'
GPGPU-Sim uArch: Shader 18 bind to kernel 1 '_Z10gemm_tiledPfS_S_iii'
GPGPU-Sim uArch: Shader 45 bind to kernel 1 '_Z10gemm_tiledPfS_S_iii'
GPGPU-Sim uArch: Shader 36 bind to kernel 1 '_Z10gemm_tiledPfS_S_iii'
GPGPU-Sim uArch: Shader 42 bind to kernel 1 '_Z10gemm_tiledPfS_S_iii'
GPGPU-Sim uArch: Shader 38 bind to kernel 1 '_Z10gemm_tiledPfS_S_iii'
GPGPU-Sim uArch: Shader 24 bind to kernel 1 '_Z10gemm_tiledPfS_S_iii'
GPGPU-Sim uArch: Shader 12 bind to kernel 1 '_Z10gemm_tiledPfS_S_iii'
GPGPU-Sim uArch: Shader 20 bind to kernel 1 '_Z10gemm_tiledPfS_S_iii'
GPGPU-Sim uArch: Shader 28 bind to kernel 1 '_Z10gemm_tiledPfS_S_iii'
GPGPU-Sim uArch: Shader 10 bind to kernel 1 '_Z10gemm_tiledPfS_S_iii'
GPGPU-Sim uArch: Shader 22 bind to kernel 1 '_Z10gemm_tiledPfS_S_iii'
GPGPU-Sim uArch: Shader 34 bind to kernel 1 '_Z10gemm_tiledPfS_S_iii'
GPGPU-Sim uArch: Shader 43 bind to kernel 1 '_Z10gemm_tiledPfS_S_iii'
GPGPU-Sim uArch: Shader 15 bind to kernel 1 '_Z10gemm_tiledPfS_S_iii'
GPGPU-Sim uArch: Shader 5 bind to kernel 1 '_Z10gemm_tiledPfS_S_iii'
GPGPU-Sim uArch: Shader 19 bind to kernel 1 '_Z10gemm_tiledPfS_S_iii'
GPGPU-Sim uArch: Shader 9 bind to kernel 1 '_Z10gemm_tiledPfS_S_iii'
GPGPU-Sim uArch: Shader 14 bind to kernel 1 '_Z10gemm_tiledPfS_S_iii'
GPGPU-Sim uArch: Shader 4 bind to kernel 1 '_Z10gemm_tiledPfS_S_iii'
GPGPU-Sim uArch: Shader 7 bind to kernel 1 '_Z10gemm_tiledPfS_S_iii'
GPGPU-Sim uArch: Shader 17 bind to kernel 1 '_Z10gemm_tiledPfS_S_iii'
GPGPU-Sim uArch: Shader 26 bind to kernel 1 '_Z10gemm_tiledPfS_S_iii'
GPGPU-Sim uArch: Shader 21 bind to kernel 1 '_Z10gemm_tiledPfS_S_iii'
GPGPU-Sim uArch: Shader 23 bind to kernel 1 '_Z10gemm_tiledPfS_S_iii'
GPGPU-Sim uArch: Shader 16 bind to kernel 1 '_Z10gemm_tiledPfS_S_iii'
GPGPU-Sim uArch: Shader 13 bind to kernel 1 '_Z10gemm_tiledPfS_S_iii'
GPGPU-Sim uArch: Shader 8 bind to kernel 1 '_Z10gemm_tiledPfS_S_iii'
GPGPU-Sim uArch: Shader 0 bind to kernel 1 '_Z10gemm_tiledPfS_S_iii'
GPGPU-Sim uArch: Shader 11 bind to kernel 1 '_Z10gemm_tiledPfS_S_iii'
GPGPU-Sim uArch: Shader 25 bind to kernel 1 '_Z10gemm_tiledPfS_S_iii'
GPGPU-Sim uArch: Shader 3 bind to kernel 1 '_Z10gemm_tiledPfS_S_iii'
GPGPU-Sim uArch: Shader 1 bind to kernel 1 '_Z10gemm_tiledPfS_S_iii'
GPGPU-Sim uArch: Shader 31 bind to kernel 1 '_Z10gemm_tiledPfS_S_iii'
GPGPU-Sim uArch: Shader 27 bind to kernel 1 '_Z10gemm_tiledPfS_S_iii'
GPGPU-Sim uArch: Shader 29 bind to kernel 1 '_Z10gemm_tiledPfS_S_iii'
GPGPU-Sim uArch: Shader 6 bind to kernel 1 '_Z10gemm_tiledPfS_S_iii'
GPGPU-Sim uArch: Shader 35 bind to kernel 1 '_Z10gemm_tiledPfS_S_iii'
GPGPU-Sim uArch: Shader 2 bind to kernel 1 '_Z10gemm_tiledPfS_S_iii'
GPGPU-Sim uArch: Shader 41 bind to kernel 1 '_Z10gemm_tiledPfS_S_iii'
GPGPU-Sim uArch: Shader 33 bind to kernel 1 '_Z10gemm_tiledPfS_S_iii'
GPGPU-Sim uArch: Shader 40 bind to kernel 1 '_Z10gemm_tiledPfS_S_iii'
GPGPU-Sim uArch: Shader 30 bind to kernel 1 '_Z10gemm_tiledPfS_S_iii'
GPGPU-Sim uArch: Shader 44 bind to kernel 1 '_Z10gemm_tiledPfS_S_iii'
GPGPU-Sim uArch: Shader 42 bind to kernel 1 '_Z10gemm_tiledPfS_S_iii'
GPGPU-Sim uArch: Shader 18 bind to kernel 1 '_Z10gemm_tiledPfS_S_iii'
GPGPU-Sim uArch: Shader 24 bind to kernel 1 '_Z10gemm_tiledPfS_S_iii'
GPGPU-Sim uArch: Shader 39 bind to kernel 1 '_Z10gemm_tiledPfS_S_iii'
GPGPU-Sim uArch: Shader 32 bind to kernel 1 '_Z10gemm_tiledPfS_S_iii'
GPGPU-Sim uArch: Shader 37 bind to kernel 1 '_Z10gemm_tiledPfS_S_iii'
GPGPU-Sim uArch: Shader 8 bind to kernel 1 '_Z10gemm_tiledPfS_S_iii'
GPGPU-Sim uArch: Shader 38 bind to kernel 1 '_Z10gemm_tiledPfS_S_iii'
GPGPU-Sim uArch: Shader 15 bind to kernel 1 '_Z10gemm_tiledPfS_S_iii'
GPGPU-Sim uArch: Shader 36 bind to kernel 1 '_Z10gemm_tiledPfS_S_iii'
GPGPU-Sim uArch: Shader 12 bind to kernel 1 '_Z10gemm_tiledPfS_S_iii'
GPGPU-Sim uArch: Shader 5 bind to kernel 1 '_Z10gemm_tiledPfS_S_iii'
GPGPU-Sim uArch: Shader 21 bind to kernel 1 '_Z10gemm_tiledPfS_S_iii'
GPGPU-Sim uArch: Shader 22 bind to kernel 1 '_Z10gemm_tiledPfS_S_iii'
GPGPU-Sim uArch: Shader 4 bind to kernel 1 '_Z10gemm_tiledPfS_S_iii'
GPGPU-Sim uArch: Shader 20 bind to kernel 1 '_Z10gemm_tiledPfS_S_iii'
GPGPU-Sim uArch: Shader 17 bind to kernel 1 '_Z10gemm_tiledPfS_S_iii'
GPGPU-Sim uArch: Shader 45 bind to kernel 1 '_Z10gemm_tiledPfS_S_iii'
GPGPU-Sim uArch: Shader 26 bind to kernel 1 '_Z10gemm_tiledPfS_S_iii'
GPGPU-Sim uArch: Shader 7 bind to kernel 1 '_Z10gemm_tiledPfS_S_iii'
GPGPU-Sim uArch: Shader 16 bind to kernel 1 '_Z10gemm_tiledPfS_S_iii'
GPGPU-Sim uArch: Shader 34 bind to kernel 1 '_Z10gemm_tiledPfS_S_iii'
GPGPU-Sim uArch: Shader 10 bind to kernel 1 '_Z10gemm_tiledPfS_S_iii'
GPGPU-Sim uArch: Shader 19 bind to kernel 1 '_Z10gemm_tiledPfS_S_iii'
GPGPU-Sim uArch: Shader 9 bind to kernel 1 '_Z10gemm_tiledPfS_S_iii'
GPGPU-Sim uArch: Shader 28 bind to kernel 1 '_Z10gemm_tiledPfS_S_iii'
GPGPU-Sim uArch: Shader 43 bind to kernel 1 '_Z10gemm_tiledPfS_S_iii'
GPGPU-Sim uArch: Shader 14 bind to kernel 1 '_Z10gemm_tiledPfS_S_iii'
GPGPU-Sim uArch: Shader 23 bind to kernel 1 '_Z10gemm_tiledPfS_S_iii'
GPGPU-Sim uArch: Shader 13 bind to kernel 1 '_Z10gemm_tiledPfS_S_iii'
GPGPU-Sim uArch: Shader 11 bind to kernel 1 '_Z10gemm_tiledPfS_S_iii'
GPGPU-Sim uArch: Shader 25 bind to kernel 1 '_Z10gemm_tiledPfS_S_iii'
GPGPU-Sim uArch: Shader 31 bind to kernel 1 '_Z10gemm_tiledPfS_S_iii'
GPGPU-Sim uArch: Shader 0 bind to kernel 1 '_Z10gemm_tiledPfS_S_iii'
GPGPU-Sim uArch: Shader 3 bind to kernel 1 '_Z10gemm_tiledPfS_S_iii'
GPGPU-Sim uArch: Shader 1 bind to kernel 1 '_Z10gemm_tiledPfS_S_iii'
GPGPU-Sim uArch: Shader 27 bind to kernel 1 '_Z10gemm_tiledPfS_S_iii'
GPGPU-Sim uArch: Shader 29 bind to kernel 1 '_Z10gemm_tiledPfS_S_iii'
GPGPU-Sim uArch: Shader 6 bind to kernel 1 '_Z10gemm_tiledPfS_S_iii'
GPGPU-Sim uArch: Shader 35 bind to kernel 1 '_Z10gemm_tiledPfS_S_iii'
GPGPU-Sim uArch: Shader 33 bind to kernel 1 '_Z10gemm_tiledPfS_S_iii'
GPGPU-Sim uArch: Shader 2 bind to kernel 1 '_Z10gemm_tiledPfS_S_iii'
GPGPU-Sim uArch: Shader 39 bind to kernel 1 '_Z10gemm_tiledPfS_S_iii'
GPGPU-Sim uArch: Shader 41 bind to kernel 1 '_Z10gemm_tiledPfS_S_iii'
GPGPU-Sim uArch: Shader 30 bind to kernel 1 '_Z10gemm_tiledPfS_S_iii'
GPGPU-Sim uArch: Shader 18 bind to kernel 1 '_Z10gemm_tiledPfS_S_iii'
GPGPU-Sim uArch: Shader 24 bind to kernel 1 '_Z10gemm_tiledPfS_S_iii'
GPGPU-Sim uArch: Shader 37 bind to kernel 1 '_Z10gemm_tiledPfS_S_iii'
GPGPU-Sim uArch: Shader 44 bind to kernel 1 '_Z10gemm_tiledPfS_S_iii'
GPGPU-Sim uArch: Shader 8 bind to kernel 1 '_Z10gemm_tiledPfS_S_iii'
GPGPU-Sim uArch: Shader 40 bind to kernel 1 '_Z10gemm_tiledPfS_S_iii'
GPGPU-Sim uArch: Shader 32 bind to kernel 1 '_Z10gemm_tiledPfS_S_iii'
GPGPU-Sim uArch: Shader 42 bind to kernel 1 '_Z10gemm_tiledPfS_S_iii'
GPGPU-Sim uArch: Shader 5 bind to kernel 1 '_Z10gemm_tiledPfS_S_iii'
GPGPU-Sim uArch: Shader 12 bind to kernel 1 '_Z10gemm_tiledPfS_S_iii'
GPGPU-Sim uArch: Shader 15 bind to kernel 1 '_Z10gemm_tiledPfS_S_iii'
GPGPU-Sim uArch: Shader 45 bind to kernel 1 '_Z10gemm_tiledPfS_S_iii'
GPGPU-Sim uArch: Shader 21 bind to kernel 1 '_Z10gemm_tiledPfS_S_iii'
GPGPU-Sim uArch: Shader 17 bind to kernel 1 '_Z10gemm_tiledPfS_S_iii'
GPGPU-Sim uArch: Shader 36 bind to kernel 1 '_Z10gemm_tiledPfS_S_iii'
GPGPU-Sim uArch: Shader 22 bind to kernel 1 '_Z10gemm_tiledPfS_S_iii'
GPGPU-Sim uArch: Shader 7 bind to kernel 1 '_Z10gemm_tiledPfS_S_iii'
GPGPU-Sim uArch: Shader 4 bind to kernel 1 '_Z10gemm_tiledPfS_S_iii'
GPGPU-Sim uArch: Shader 20 bind to kernel 1 '_Z10gemm_tiledPfS_S_iii'
GPGPU-Sim uArch: Shader 19 bind to kernel 1 '_Z10gemm_tiledPfS_S_iii'
GPGPU-Sim uArch: Shader 11 bind to kernel 1 '_Z10gemm_tiledPfS_S_iii'
GPGPU-Sim uArch: Shader 9 bind to kernel 1 '_Z10gemm_tiledPfS_S_iii'
GPGPU-Sim uArch: Shader 23 bind to kernel 1 '_Z10gemm_tiledPfS_S_iii'
GPGPU-Sim uArch: Shader 38 bind to kernel 1 '_Z10gemm_tiledPfS_S_iii'
GPGPU-Sim uArch: Shader 16 bind to kernel 1 '_Z10gemm_tiledPfS_S_iii'
GPGPU-Sim uArch: Shader 25 bind to kernel 1 '_Z10gemm_tiledPfS_S_iii'
GPGPU-Sim uArch: Shader 43 bind to kernel 1 '_Z10gemm_tiledPfS_S_iii'
GPGPU-Sim uArch: Shader 34 bind to kernel 1 '_Z10gemm_tiledPfS_S_iii'
GPGPU-Sim uArch: Shader 10 bind to kernel 1 '_Z10gemm_tiledPfS_S_iii'
GPGPU-Sim uArch: Shader 14 bind to kernel 1 '_Z10gemm_tiledPfS_S_iii'
GPGPU-Sim uArch: Shader 26 bind to kernel 1 '_Z10gemm_tiledPfS_S_iii'
GPGPU-Sim uArch: Shader 28 bind to kernel 1 '_Z10gemm_tiledPfS_S_iii'
GPGPU-Sim uArch: Shader 29 bind to kernel 1 '_Z10gemm_tiledPfS_S_iii'
GPGPU-Sim uArch: Shader 0 bind to kernel 1 '_Z10gemm_tiledPfS_S_iii'
GPGPU-Sim uArch: Shader 31 bind to kernel 1 '_Z10gemm_tiledPfS_S_iii'
GPGPU-Sim uArch: Shader 27 bind to kernel 1 '_Z10gemm_tiledPfS_S_iii'
GPGPU-Sim uArch: Shader 13 bind to kernel 1 '_Z10gemm_tiledPfS_S_iii'
GPGPU-Sim uArch: Shader 1 bind to kernel 1 '_Z10gemm_tiledPfS_S_iii'
GPGPU-Sim uArch: Shader 3 bind to kernel 1 '_Z10gemm_tiledPfS_S_iii'
GPGPU-Sim uArch: Shader 6 bind to kernel 1 '_Z10gemm_tiledPfS_S_iii'
GPGPU-Sim uArch: Shader 33 bind to kernel 1 '_Z10gemm_tiledPfS_S_iii'
GPGPU-Sim uArch: Shader 35 bind to kernel 1 '_Z10gemm_tiledPfS_S_iii'
GPGPU-Sim uArch: Shader 18 bind to kernel 1 '_Z10gemm_tiledPfS_S_iii'
GPGPU-Sim uArch: Shader 39 bind to kernel 1 '_Z10gemm_tiledPfS_S_iii'
GPGPU-Sim uArch: Shader 24 bind to kernel 1 '_Z10gemm_tiledPfS_S_iii'
GPGPU-Sim uArch: Shader 2 bind to kernel 1 '_Z10gemm_tiledPfS_S_iii'
GPGPU-Sim uArch: Shader 37 bind to kernel 1 '_Z10gemm_tiledPfS_S_iii'
GPGPU-Sim uArch: Shader 44 bind to kernel 1 '_Z10gemm_tiledPfS_S_iii'
GPGPU-Sim uArch: Shader 42 bind to kernel 1 '_Z10gemm_tiledPfS_S_iii'
GPGPU-Sim uArch: Shader 12 bind to kernel 1 '_Z10gemm_tiledPfS_S_iii'
GPGPU-Sim uArch: Shader 30 bind to kernel 1 '_Z10gemm_tiledPfS_S_iii'
GPGPU-Sim uArch: Shader 5 bind to kernel 1 '_Z10gemm_tiledPfS_S_iii'
GPGPU-Sim uArch: Shader 40 bind to kernel 1 '_Z10gemm_tiledPfS_S_iii'
GPGPU-Sim uArch: Shader 8 bind to kernel 1 '_Z10gemm_tiledPfS_S_iii'
GPGPU-Sim uArch: Shader 45 bind to kernel 1 '_Z10gemm_tiledPfS_S_iii'
GPGPU-Sim uArch: Shader 9 bind to kernel 1 '_Z10gemm_tiledPfS_S_iii'
GPGPU-Sim uArch: Shader 41 bind to kernel 1 '_Z10gemm_tiledPfS_S_iii'
GPGPU-Sim uArch: Shader 15 bind to kernel 1 '_Z10gemm_tiledPfS_S_iii'
GPGPU-Sim uArch: Shader 32 bind to kernel 1 '_Z10gemm_tiledPfS_S_iii'
GPGPU-Sim uArch: Shader 4 bind to kernel 1 '_Z10gemm_tiledPfS_S_iii'
GPGPU-Sim uArch: Shader 36 bind to kernel 1 '_Z10gemm_tiledPfS_S_iii'
GPGPU-Sim uArch: Shader 22 bind to kernel 1 '_Z10gemm_tiledPfS_S_iii'
GPGPU-Sim uArch: Shader 23 bind to kernel 1 '_Z10gemm_tiledPfS_S_iii'
GPGPU-Sim uArch: Shader 19 bind to kernel 1 '_Z10gemm_tiledPfS_S_iii'
GPGPU-Sim uArch: Shader 21 bind to kernel 1 '_Z10gemm_tiledPfS_S_iii'
GPGPU-Sim uArch: Shader 25 bind to kernel 1 '_Z10gemm_tiledPfS_S_iii'
GPGPU-Sim uArch: Shader 34 bind to kernel 1 '_Z10gemm_tiledPfS_S_iii'
GPGPU-Sim uArch: Shader 7 bind to kernel 1 '_Z10gemm_tiledPfS_S_iii'
GPGPU-Sim uArch: Shader 14 bind to kernel 1 '_Z10gemm_tiledPfS_S_iii'
GPGPU-Sim uArch: Shader 16 bind to kernel 1 '_Z10gemm_tiledPfS_S_iii'
GPGPU-Sim uArch: Shader 28 bind to kernel 1 '_Z10gemm_tiledPfS_S_iii'
GPGPU-Sim uArch: Shader 17 bind to kernel 1 '_Z10gemm_tiledPfS_S_iii'
GPGPU-Sim uArch: Shader 43 bind to kernel 1 '_Z10gemm_tiledPfS_S_iii'
GPGPU-Sim uArch: Shader 26 bind to kernel 1 '_Z10gemm_tiledPfS_S_iii'
GPGPU-Sim uArch: Shader 13 bind to kernel 1 '_Z10gemm_tiledPfS_S_iii'
GPGPU-Sim uArch: Shader 20 bind to kernel 1 '_Z10gemm_tiledPfS_S_iii'
GPGPU-Sim uArch: Shader 31 bind to kernel 1 '_Z10gemm_tiledPfS_S_iii'
GPGPU-Sim uArch: Shader 11 bind to kernel 1 '_Z10gemm_tiledPfS_S_iii'
GPGPU-Sim uArch: Shader 10 bind to kernel 1 '_Z10gemm_tiledPfS_S_iii'
GPGPU-Sim uArch: Shader 29 bind to kernel 1 '_Z10gemm_tiledPfS_S_iii'
GPGPU-Sim uArch: Shader 27 bind to kernel 1 '_Z10gemm_tiledPfS_S_iii'
GPGPU-Sim uArch: Shader 38 bind to kernel 1 '_Z10gemm_tiledPfS_S_iii'
GPGPU-Sim uArch: Shader 1 bind to kernel 1 '_Z10gemm_tiledPfS_S_iii'
GPGPU-Sim uArch: Shader 0 bind to kernel 1 '_Z10gemm_tiledPfS_S_iii'
GPGPU-Sim uArch: Shader 3 bind to kernel 1 '_Z10gemm_tiledPfS_S_iii'
GPGPU-Sim uArch: Shader 6 bind to kernel 1 '_Z10gemm_tiledPfS_S_iii'
GPGPU-Sim uArch: Shader 33 bind to kernel 1 '_Z10gemm_tiledPfS_S_iii'
GPGPU-Sim uArch: Shader 2 bind to kernel 1 '_Z10gemm_tiledPfS_S_iii'
GPGPU-Sim uArch: Shader 42 bind to kernel 1 '_Z10gemm_tiledPfS_S_iii'
GPGPU-Sim uArch: Shader 35 bind to kernel 1 '_Z10gemm_tiledPfS_S_iii'
GPGPU-Sim uArch: Shader 36 bind to kernel 1 '_Z10gemm_tiledPfS_S_iii'
GPGPU-Sim uArch: Shader 37 bind to kernel 1 '_Z10gemm_tiledPfS_S_iii'
GPGPU-Sim uArch: Shader 12 bind to kernel 1 '_Z10gemm_tiledPfS_S_iii'
GPGPU-Sim uArch: Shader 40 bind to kernel 1 '_Z10gemm_tiledPfS_S_iii'
GPGPU-Sim uArch: Shader 32 bind to kernel 1 '_Z10gemm_tiledPfS_S_iii'
GPGPU-Sim uArch: Shader 39 bind to kernel 1 '_Z10gemm_tiledPfS_S_iii'
GPGPU-Sim uArch: Shader 24 bind to kernel 1 '_Z10gemm_tiledPfS_S_iii'
GPGPU-Sim uArch: Shader 44 bind to kernel 1 '_Z10gemm_tiledPfS_S_iii'
GPGPU-Sim uArch: Shader 8 bind to kernel 1 '_Z10gemm_tiledPfS_S_iii'
GPGPU-Sim uArch: Shader 18 bind to kernel 1 '_Z10gemm_tiledPfS_S_iii'
GPGPU-Sim uArch: Shader 41 bind to kernel 1 '_Z10gemm_tiledPfS_S_iii'
GPGPU-Sim uArch: Shader 30 bind to kernel 1 '_Z10gemm_tiledPfS_S_iii'
GPGPU-Sim uArch: Shader 45 bind to kernel 1 '_Z10gemm_tiledPfS_S_iii'
GPGPU-Sim uArch: Shader 4 bind to kernel 1 '_Z10gemm_tiledPfS_S_iii'
GPGPU-Sim uArch: Shader 15 bind to kernel 1 '_Z10gemm_tiledPfS_S_iii'
GPGPU-Sim uArch: Shader 23 bind to kernel 1 '_Z10gemm_tiledPfS_S_iii'
GPGPU-Sim uArch: Shader 19 bind to kernel 1 '_Z10gemm_tiledPfS_S_iii'
GPGPU-Sim uArch: Shader 9 bind to kernel 1 '_Z10gemm_tiledPfS_S_iii'
GPGPU-Sim uArch: Shader 5 bind to kernel 1 '_Z10gemm_tiledPfS_S_iii'
GPGPU-Sim uArch: Shader 14 bind to kernel 1 '_Z10gemm_tiledPfS_S_iii'
GPGPU-Sim uArch: Shader 25 bind to kernel 1 '_Z10gemm_tiledPfS_S_iii'
GPGPU-Sim uArch: Shader 28 bind to kernel 1 '_Z10gemm_tiledPfS_S_iii'
GPGPU-Sim uArch: Shader 26 bind to kernel 1 '_Z10gemm_tiledPfS_S_iii'
GPGPU-Sim uArch: Shader 43 bind to kernel 1 '_Z10gemm_tiledPfS_S_iii'
GPGPU-Sim uArch: Shader 17 bind to kernel 1 '_Z10gemm_tiledPfS_S_iii'
GPGPU-Sim uArch: Shader 22 bind to kernel 1 '_Z10gemm_tiledPfS_S_iii'
GPGPU-Sim uArch: Shader 13 bind to kernel 1 '_Z10gemm_tiledPfS_S_iii'
GPGPU-Sim uArch: Shader 21 bind to kernel 1 '_Z10gemm_tiledPfS_S_iii'
GPGPU-Sim uArch: Shader 16 bind to kernel 1 '_Z10gemm_tiledPfS_S_iii'
GPGPU-Sim uArch: Shader 31 bind to kernel 1 '_Z10gemm_tiledPfS_S_iii'
GPGPU-Sim uArch: Shader 20 bind to kernel 1 '_Z10gemm_tiledPfS_S_iii'
GPGPU-Sim uArch: Shader 7 bind to kernel 1 '_Z10gemm_tiledPfS_S_iii'
GPGPU-Sim uArch: Shader 10 bind to kernel 1 '_Z10gemm_tiledPfS_S_iii'
GPGPU-Sim uArch: Shader 0 bind to kernel 1 '_Z10gemm_tiledPfS_S_iii'
GPGPU-Sim uArch: Shader 29 bind to kernel 1 '_Z10gemm_tiledPfS_S_iii'
GPGPU-Sim uArch: Shader 27 bind to kernel 1 '_Z10gemm_tiledPfS_S_iii'
GPGPU-Sim uArch: Shader 1 bind to kernel 1 '_Z10gemm_tiledPfS_S_iii'
GPGPU-Sim uArch: Shader 34 bind to kernel 1 '_Z10gemm_tiledPfS_S_iii'
GPGPU-Sim uArch: Shader 38 bind to kernel 1 '_Z10gemm_tiledPfS_S_iii'
GPGPU-Sim uArch: Shader 3 bind to kernel 1 '_Z10gemm_tiledPfS_S_iii'
GPGPU-Sim uArch: Shader 11 bind to kernel 1 '_Z10gemm_tiledPfS_S_iii'
GPGPU-Sim uArch: Shader 6 bind to kernel 1 '_Z10gemm_tiledPfS_S_iii'
GPGPU-Sim uArch: Shader 2 bind to kernel 1 '_Z10gemm_tiledPfS_S_iii'
GPGPU-Sim uArch: Shader 12 bind to kernel 1 '_Z10gemm_tiledPfS_S_iii'
GPGPU-Sim uArch: Shader 42 bind to kernel 1 '_Z10gemm_tiledPfS_S_iii'
GPGPU-Sim uArch: Shader 33 bind to kernel 1 '_Z10gemm_tiledPfS_S_iii'
GPGPU-Sim uArch: Shader 37 bind to kernel 1 '_Z10gemm_tiledPfS_S_iii'
GPGPU-Sim uArch: Shader 40 bind to kernel 1 '_Z10gemm_tiledPfS_S_iii'
GPGPU-Sim uArch: Shader 35 bind to kernel 1 '_Z10gemm_tiledPfS_S_iii'
GPGPU-Sim uArch: Shader 39 bind to kernel 1 '_Z10gemm_tiledPfS_S_iii'
GPGPU-Sim uArch: Shader 32 bind to kernel 1 '_Z10gemm_tiledPfS_S_iii'
GPGPU-Sim uArch: Shader 19 bind to kernel 1 '_Z10gemm_tiledPfS_S_iii'
GPGPU-Sim uArch: Shader 36 bind to kernel 1 '_Z10gemm_tiledPfS_S_iii'
GPGPU-Sim uArch: Shader 18 bind to kernel 1 '_Z10gemm_tiledPfS_S_iii'
GPGPU-Sim uArch: Shader 24 bind to kernel 1 '_Z10gemm_tiledPfS_S_iii'
GPGPU-Sim uArch: Shader 23 bind to kernel 1 '_Z10gemm_tiledPfS_S_iii'
GPGPU-Sim uArch: Shader 15 bind to kernel 1 '_Z10gemm_tiledPfS_S_iii'
GPGPU-Sim uArch: Shader 41 bind to kernel 1 '_Z10gemm_tiledPfS_S_iii'
GPGPU-Sim uArch: Shader 44 bind to kernel 1 '_Z10gemm_tiledPfS_S_iii'
GPGPU-Sim uArch: Shader 14 bind to kernel 1 '_Z10gemm_tiledPfS_S_iii'
GPGPU-Sim uArch: Shader 8 bind to kernel 1 '_Z10gemm_tiledPfS_S_iii'
GPGPU-Sim uArch: Shader 17 bind to kernel 1 '_Z10gemm_tiledPfS_S_iii'
GPGPU-Sim uArch: Shader 4 bind to kernel 1 '_Z10gemm_tiledPfS_S_iii'
GPGPU-Sim uArch: Shader 5 bind to kernel 1 '_Z10gemm_tiledPfS_S_iii'
GPGPU-Sim uArch: Shader 26 bind to kernel 1 '_Z10gemm_tiledPfS_S_iii'
GPGPU-Sim uArch: Shader 9 bind to kernel 1 '_Z10gemm_tiledPfS_S_iii'
GPGPU-Sim uArch: Shader 25 bind to kernel 1 '_Z10gemm_tiledPfS_S_iii'
GPGPU-Sim uArch: Shader 13 bind to kernel 1 '_Z10gemm_tiledPfS_S_iii'
GPGPU-Sim uArch: Shader 30 bind to kernel 1 '_Z10gemm_tiledPfS_S_iii'
GPGPU-Sim uArch: Shader 21 bind to kernel 1 '_Z10gemm_tiledPfS_S_iii'
GPGPU-Sim uArch: Shader 45 bind to kernel 1 '_Z10gemm_tiledPfS_S_iii'
GPGPU-Sim uArch: Shader 28 bind to kernel 1 '_Z10gemm_tiledPfS_S_iii'
GPGPU-Sim uArch: Shader 7 bind to kernel 1 '_Z10gemm_tiledPfS_S_iii'
GPGPU-Sim uArch: Shader 22 bind to kernel 1 '_Z10gemm_tiledPfS_S_iii'
GPGPU-Sim uArch: Shader 43 bind to kernel 1 '_Z10gemm_tiledPfS_S_iii'
GPGPU-Sim uArch: Shader 10 bind to kernel 1 '_Z10gemm_tiledPfS_S_iii'
GPGPU-Sim uArch: Shader 16 bind to kernel 1 '_Z10gemm_tiledPfS_S_iii'
GPGPU-Sim uArch: Shader 34 bind to kernel 1 '_Z10gemm_tiledPfS_S_iii'
GPGPU-Sim uArch: Shader 20 bind to kernel 1 '_Z10gemm_tiledPfS_S_iii'
GPGPU-Sim uArch: Shader 29 bind to kernel 1 '_Z10gemm_tiledPfS_S_iii'
GPGPU-Sim uArch: Shader 31 bind to kernel 1 '_Z10gemm_tiledPfS_S_iii'
GPGPU-Sim uArch: Shader 3 bind to kernel 1 '_Z10gemm_tiledPfS_S_iii'
GPGPU-Sim uArch: Shader 1 bind to kernel 1 '_Z10gemm_tiledPfS_S_iii'
GPGPU-Sim uArch: Shader 27 bind to kernel 1 '_Z10gemm_tiledPfS_S_iii'
GPGPU-Sim uArch: Shader 38 bind to kernel 1 '_Z10gemm_tiledPfS_S_iii'
GPGPU-Sim uArch: Shader 0 bind to kernel 1 '_Z10gemm_tiledPfS_S_iii'
GPGPU-Sim uArch: Shader 11 bind to kernel 1 '_Z10gemm_tiledPfS_S_iii'
GPGPU-Sim uArch: Shader 6 bind to kernel 1 '_Z10gemm_tiledPfS_S_iii'
GPGPU-Sim uArch: Shader 12 bind to kernel 1 '_Z10gemm_tiledPfS_S_iii'
GPGPU-Sim uArch: Shader 42 bind to kernel 1 '_Z10gemm_tiledPfS_S_iii'
GPGPU-Sim uArch: Shader 37 bind to kernel 1 '_Z10gemm_tiledPfS_S_iii'
GPGPU-Sim uArch: Shader 35 bind to kernel 1 '_Z10gemm_tiledPfS_S_iii'
GPGPU-Sim uArch: Shader 33 bind to kernel 1 '_Z10gemm_tiledPfS_S_iii'
GPGPU-Sim uArch: Shader 2 bind to kernel 1 '_Z10gemm_tiledPfS_S_iii'
GPGPU-Sim uArch: Shader 40 bind to kernel 1 '_Z10gemm_tiledPfS_S_iii'
GPGPU-Sim uArch: Shader 32 bind to kernel 1 '_Z10gemm_tiledPfS_S_iii'
GPGPU-Sim uArch: Shader 24 bind to kernel 1 '_Z10gemm_tiledPfS_S_iii'
GPGPU-Sim uArch: Shader 39 bind to kernel 1 '_Z10gemm_tiledPfS_S_iii'
GPGPU-Sim uArch: Shader 19 bind to kernel 1 '_Z10gemm_tiledPfS_S_iii'
GPGPU-Sim uArch: Shader 44 bind to kernel 1 '_Z10gemm_tiledPfS_S_iii'
GPGPU-Sim uArch: Shader 18 bind to kernel 1 '_Z10gemm_tiledPfS_S_iii'
GPGPU-Sim uArch: Shader 36 bind to kernel 1 '_Z10gemm_tiledPfS_S_iii'
GPGPU-Sim uArch: Shader 21 bind to kernel 1 '_Z10gemm_tiledPfS_S_iii'
GPGPU-Sim uArch: Shader 41 bind to kernel 1 '_Z10gemm_tiledPfS_S_iii'
GPGPU-Sim uArch: Shader 14 bind to kernel 1 '_Z10gemm_tiledPfS_S_iii'
GPGPU-Sim uArch: Shader 4 bind to kernel 1 '_Z10gemm_tiledPfS_S_iii'
GPGPU-Sim uArch: Shader 23 bind to kernel 1 '_Z10gemm_tiledPfS_S_iii'
GPGPU-Sim uArch: Shader 15 bind to kernel 1 '_Z10gemm_tiledPfS_S_iii'
GPGPU-Sim uArch: Shader 9 bind to kernel 1 '_Z10gemm_tiledPfS_S_iii'
GPGPU-Sim uArch: Shader 8 bind to kernel 1 '_Z10gemm_tiledPfS_S_iii'
GPGPU-Sim uArch: Shader 17 bind to kernel 1 '_Z10gemm_tiledPfS_S_iii'
GPGPU-Sim uArch: Shader 26 bind to kernel 1 '_Z10gemm_tiledPfS_S_iii'
GPGPU-Sim uArch: Shader 30 bind to kernel 1 '_Z10gemm_tiledPfS_S_iii'
GPGPU-Sim uArch: Shader 13 bind to kernel 1 '_Z10gemm_tiledPfS_S_iii'
GPGPU-Sim uArch: Shader 28 bind to kernel 1 '_Z10gemm_tiledPfS_S_iii'
GPGPU-Sim uArch: Shader 22 bind to kernel 1 '_Z10gemm_tiledPfS_S_iii'
GPGPU-Sim uArch: Shader 45 bind to kernel 1 '_Z10gemm_tiledPfS_S_iii'
GPGPU-Sim uArch: Shader 25 bind to kernel 1 '_Z10gemm_tiledPfS_S_iii'
GPGPU-Sim uArch: Shader 5 bind to kernel 1 '_Z10gemm_tiledPfS_S_iii'
GPGPU-Sim uArch: Shader 20 bind to kernel 1 '_Z10gemm_tiledPfS_S_iii'
GPGPU-Sim uArch: Shader 34 bind to kernel 1 '_Z10gemm_tiledPfS_S_iii'
GPGPU-Sim uArch: Shader 7 bind to kernel 1 '_Z10gemm_tiledPfS_S_iii'
GPGPU-Sim uArch: Shader 29 bind to kernel 1 '_Z10gemm_tiledPfS_S_iii'
GPGPU-Sim uArch: Shader 10 bind to kernel 1 '_Z10gemm_tiledPfS_S_iii'
GPGPU-Sim uArch: Shader 43 bind to kernel 1 '_Z10gemm_tiledPfS_S_iii'
GPGPU-Sim uArch: Shader 3 bind to kernel 1 '_Z10gemm_tiledPfS_S_iii'
GPGPU-Sim uArch: Shader 27 bind to kernel 1 '_Z10gemm_tiledPfS_S_iii'
GPGPU-Sim uArch: Shader 31 bind to kernel 1 '_Z10gemm_tiledPfS_S_iii'
GPGPU-Sim uArch: Shader 11 bind to kernel 1 '_Z10gemm_tiledPfS_S_iii'
GPGPU-Sim uArch: Shader 16 bind to kernel 1 '_Z10gemm_tiledPfS_S_iii'
GPGPU-Sim uArch: Shader 0 bind to kernel 1 '_Z10gemm_tiledPfS_S_iii'
GPGPU-Sim uArch: Shader 38 bind to kernel 1 '_Z10gemm_tiledPfS_S_iii'
GPGPU-Sim uArch: Shader 1 bind to kernel 1 '_Z10gemm_tiledPfS_S_iii'
GPGPU-Sim uArch: Shader 6 bind to kernel 1 '_Z10gemm_tiledPfS_S_iii'
GPGPU-Sim uArch: Shader 33 bind to kernel 1 '_Z10gemm_tiledPfS_S_iii'
GPGPU-Sim uArch: Shader 2 bind to kernel 1 '_Z10gemm_tiledPfS_S_iii'
GPGPU-Sim uArch: Shader 42 bind to kernel 1 '_Z10gemm_tiledPfS_S_iii'
GPGPU-Sim uArch: Shader 19 bind to kernel 1 '_Z10gemm_tiledPfS_S_iii'
GPGPU-Sim uArch: Shader 12 bind to kernel 1 '_Z10gemm_tiledPfS_S_iii'
GPGPU-Sim uArch: Shader 37 bind to kernel 1 '_Z10gemm_tiledPfS_S_iii'
GPGPU-Sim uArch: Shader 35 bind to kernel 1 '_Z10gemm_tiledPfS_S_iii'
GPGPU-Sim uArch: Shader 21 bind to kernel 1 '_Z10gemm_tiledPfS_S_iii'
GPGPU-Sim uArch: Shader 32 bind to kernel 1 '_Z10gemm_tiledPfS_S_iii'
GPGPU-Sim uArch: Shader 40 bind to kernel 1 '_Z10gemm_tiledPfS_S_iii'
GPGPU-Sim uArch: Shader 39 bind to kernel 1 '_Z10gemm_tiledPfS_S_iii'
GPGPU-Sim uArch: Shader 36 bind to kernel 1 '_Z10gemm_tiledPfS_S_iii'
GPGPU-Sim uArch: Shader 44 bind to kernel 1 '_Z10gemm_tiledPfS_S_iii'
GPGPU-Sim uArch: Shader 18 bind to kernel 1 '_Z10gemm_tiledPfS_S_iii'
GPGPU-Sim uArch: Shader 24 bind to kernel 1 '_Z10gemm_tiledPfS_S_iii'
GPGPU-Sim uArch: Shader 41 bind to kernel 1 '_Z10gemm_tiledPfS_S_iii'
GPGPU-Sim uArch: Shader 14 bind to kernel 1 '_Z10gemm_tiledPfS_S_iii'
GPGPU-Sim uArch: Shader 26 bind to kernel 1 '_Z10gemm_tiledPfS_S_iii'
GPGPU-Sim uArch: Shader 15 bind to kernel 1 '_Z10gemm_tiledPfS_S_iii'
GPGPU-Sim uArch: Shader 9 bind to kernel 1 '_Z10gemm_tiledPfS_S_iii'
GPGPU-Sim uArch: Shader 23 bind to kernel 1 '_Z10gemm_tiledPfS_S_iii'
GPGPU-Sim uArch: Shader 30 bind to kernel 1 '_Z10gemm_tiledPfS_S_iii'
GPGPU-Sim uArch: Shader 4 bind to kernel 1 '_Z10gemm_tiledPfS_S_iii'
GPGPU-Sim uArch: Shader 28 bind to kernel 1 '_Z10gemm_tiledPfS_S_iii'
GPGPU-Sim uArch: Shader 17 bind to kernel 1 '_Z10gemm_tiledPfS_S_iii'
GPGPU-Sim uArch: Shader 8 bind to kernel 1 '_Z10gemm_tiledPfS_S_iii'
GPGPU-Sim uArch: Shader 20 bind to kernel 1 '_Z10gemm_tiledPfS_S_iii'
GPGPU-Sim uArch: Shader 13 bind to kernel 1 '_Z10gemm_tiledPfS_S_iii'
GPGPU-Sim uArch: Shader 34 bind to kernel 1 '_Z10gemm_tiledPfS_S_iii'
GPGPU-Sim uArch: Shader 25 bind to kernel 1 '_Z10gemm_tiledPfS_S_iii'
GPGPU-Sim uArch: Shader 45 bind to kernel 1 '_Z10gemm_tiledPfS_S_iii'
GPGPU-Sim uArch: Shader 5 bind to kernel 1 '_Z10gemm_tiledPfS_S_iii'
GPGPU-Sim uArch: Shader 22 bind to kernel 1 '_Z10gemm_tiledPfS_S_iii'
GPGPU-Sim uArch: Shader 10 bind to kernel 1 '_Z10gemm_tiledPfS_S_iii'
GPGPU-Sim uArch: Shader 3 bind to kernel 1 '_Z10gemm_tiledPfS_S_iii'
GPGPU-Sim uArch: Shader 27 bind to kernel 1 '_Z10gemm_tiledPfS_S_iii'
GPGPU-Sim uArch: Shader 7 bind to kernel 1 '_Z10gemm_tiledPfS_S_iii'
GPGPU-Sim uArch: Shader 16 bind to kernel 1 '_Z10gemm_tiledPfS_S_iii'
GPGPU-Sim uArch: Shader 29 bind to kernel 1 '_Z10gemm_tiledPfS_S_iii'
GPGPU-Sim uArch: Shader 11 bind to kernel 1 '_Z10gemm_tiledPfS_S_iii'
GPGPU-Sim uArch: Shader 43 bind to kernel 1 '_Z10gemm_tiledPfS_S_iii'
GPGPU-Sim uArch: Shader 0 bind to kernel 1 '_Z10gemm_tiledPfS_S_iii'
GPGPU-Sim uArch: Shader 38 bind to kernel 1 '_Z10gemm_tiledPfS_S_iii'
GPGPU-Sim uArch: Shader 31 bind to kernel 1 '_Z10gemm_tiledPfS_S_iii'
GPGPU-Sim uArch: Shader 1 bind to kernel 1 '_Z10gemm_tiledPfS_S_iii'
GPGPU-Sim uArch: Shader 6 bind to kernel 1 '_Z10gemm_tiledPfS_S_iii'
GPGPU-Sim uArch: Shader 33 bind to kernel 1 '_Z10gemm_tiledPfS_S_iii'
GPGPU-Sim uArch: Shader 42 bind to kernel 1 '_Z10gemm_tiledPfS_S_iii'
GPGPU-Sim uArch: Shader 19 bind to kernel 1 '_Z10gemm_tiledPfS_S_iii'
GPGPU-Sim uArch: Shader 2 bind to kernel 1 '_Z10gemm_tiledPfS_S_iii'
GPGPU-Sim uArch: Shader 37 bind to kernel 1 '_Z10gemm_tiledPfS_S_iii'
GPGPU-Sim uArch: Shader 12 bind to kernel 1 '_Z10gemm_tiledPfS_S_iii'
GPGPU-Sim uArch: Shader 32 bind to kernel 1 '_Z10gemm_tiledPfS_S_iii'
GPGPU-Sim uArch: Shader 39 bind to kernel 1 '_Z10gemm_tiledPfS_S_iii'
GPGPU-Sim uArch: Shader 36 bind to kernel 1 '_Z10gemm_tiledPfS_S_iii'
GPGPU-Sim uArch: Shader 35 bind to kernel 1 '_Z10gemm_tiledPfS_S_iii'
GPGPU-Sim uArch: Shader 21 bind to kernel 1 '_Z10gemm_tiledPfS_S_iii'
GPGPU-Sim uArch: Shader 18 bind to kernel 1 '_Z10gemm_tiledPfS_S_iii'
GPGPU-Sim uArch: Shader 15 bind to kernel 1 '_Z10gemm_tiledPfS_S_iii'
GPGPU-Sim uArch: Shader 40 bind to kernel 1 '_Z10gemm_tiledPfS_S_iii'
GPGPU-Sim uArch: Shader 24 bind to kernel 1 '_Z10gemm_tiledPfS_S_iii'
GPGPU-Sim uArch: Shader 14 bind to kernel 1 '_Z10gemm_tiledPfS_S_iii'
GPGPU-Sim uArch: Shader 26 bind to kernel 1 '_Z10gemm_tiledPfS_S_iii'
GPGPU-Sim uArch: Shader 44 bind to kernel 1 '_Z10gemm_tiledPfS_S_iii'
GPGPU-Sim uArch: Shader 28 bind to kernel 1 '_Z10gemm_tiledPfS_S_iii'
GPGPU-Sim uArch: Shader 41 bind to kernel 1 '_Z10gemm_tiledPfS_S_iii'
GPGPU-Sim uArch: Shader 4 bind to kernel 1 '_Z10gemm_tiledPfS_S_iii'
GPGPU-Sim uArch: Shader 17 bind to kernel 1 '_Z10gemm_tiledPfS_S_iii'
GPGPU-Sim uArch: Shader 45 bind to kernel 1 '_Z10gemm_tiledPfS_S_iii'
GPGPU-Sim uArch: Shader 27 bind to kernel 1 '_Z10gemm_tiledPfS_S_iii'
GPGPU-Sim uArch: Shader 9 bind to kernel 1 '_Z10gemm_tiledPfS_S_iii'
GPGPU-Sim uArch: Shader 8 bind to kernel 1 '_Z10gemm_tiledPfS_S_iii'
GPGPU-Sim uArch: Shader 25 bind to kernel 1 '_Z10gemm_tiledPfS_S_iii'
GPGPU-Sim uArch: Shader 30 bind to kernel 1 '_Z10gemm_tiledPfS_S_iii'
GPGPU-Sim uArch: Shader 16 bind to kernel 1 '_Z10gemm_tiledPfS_S_iii'
GPGPU-Sim uArch: Shader 23 bind to kernel 1 '_Z10gemm_tiledPfS_S_iii'
GPGPU-Sim uArch: Shader 22 bind to kernel 1 '_Z10gemm_tiledPfS_S_iii'
GPGPU-Sim uArch: Shader 34 bind to kernel 1 '_Z10gemm_tiledPfS_S_iii'
GPGPU-Sim uArch: Shader 10 bind to kernel 1 '_Z10gemm_tiledPfS_S_iii'
GPGPU-Sim uArch: Shader 20 bind to kernel 1 '_Z10gemm_tiledPfS_S_iii'
GPGPU-Sim uArch: Shader 11 bind to kernel 1 '_Z10gemm_tiledPfS_S_iii'
GPGPU-Sim uArch: Shader 3 bind to kernel 1 '_Z10gemm_tiledPfS_S_iii'
GPGPU-Sim uArch: Shader 5 bind to kernel 1 '_Z10gemm_tiledPfS_S_iii'
GPGPU-Sim uArch: Shader 43 bind to kernel 1 '_Z10gemm_tiledPfS_S_iii'
GPGPU-Sim uArch: Shader 7 bind to kernel 1 '_Z10gemm_tiledPfS_S_iii'
GPGPU-Sim uArch: Shader 13 bind to kernel 1 '_Z10gemm_tiledPfS_S_iii'
GPGPU-Sim uArch: Shader 1 bind to kernel 1 '_Z10gemm_tiledPfS_S_iii'
GPGPU-Sim uArch: Shader 0 bind to kernel 1 '_Z10gemm_tiledPfS_S_iii'
GPGPU-Sim uArch: Shader 38 bind to kernel 1 '_Z10gemm_tiledPfS_S_iii'
GPGPU-Sim uArch: Shader 29 bind to kernel 1 '_Z10gemm_tiledPfS_S_iii'
GPGPU-Sim uArch: Shader 31 bind to kernel 1 '_Z10gemm_tiledPfS_S_iii'
GPGPU-Sim uArch: Shader 6 bind to kernel 1 '_Z10gemm_tiledPfS_S_iii'
GPGPU-Sim uArch: Shader 33 bind to kernel 1 '_Z10gemm_tiledPfS_S_iii'
GPGPU-Sim uArch: Shader 42 bind to kernel 1 '_Z10gemm_tiledPfS_S_iii'
GPGPU-Sim uArch: Shader 19 bind to kernel 1 '_Z10gemm_tiledPfS_S_iii'
GPGPU-Sim uArch: Shader 12 bind to kernel 1 '_Z10gemm_tiledPfS_S_iii'
GPGPU-Sim uArch: Shader 37 bind to kernel 1 '_Z10gemm_tiledPfS_S_iii'
GPGPU-Sim uArch: Shader 39 bind to kernel 1 '_Z10gemm_tiledPfS_S_iii'
GPGPU-Sim uArch: Shader 2 bind to kernel 1 '_Z10gemm_tiledPfS_S_iii'
GPGPU-Sim uArch: Shader 36 bind to kernel 1 '_Z10gemm_tiledPfS_S_iii'
GPGPU-Sim uArch: Shader 35 bind to kernel 1 '_Z10gemm_tiledPfS_S_iii'
GPGPU-Sim uArch: Shader 21 bind to kernel 1 '_Z10gemm_tiledPfS_S_iii'
GPGPU-Sim uArch: Shader 18 bind to kernel 1 '_Z10gemm_tiledPfS_S_iii'
GPGPU-Sim uArch: Shader 32 bind to kernel 1 '_Z10gemm_tiledPfS_S_iii'
GPGPU-Sim uArch: Shader 24 bind to kernel 1 '_Z10gemm_tiledPfS_S_iii'
GPGPU-Sim uArch: Shader 15 bind to kernel 1 '_Z10gemm_tiledPfS_S_iii'
GPGPU-Sim uArch: Shader 41 bind to kernel 1 '_Z10gemm_tiledPfS_S_iii'
GPGPU-Sim uArch: Shader 40 bind to kernel 1 '_Z10gemm_tiledPfS_S_iii'
GPGPU-Sim uArch: Shader 44 bind to kernel 1 '_Z10gemm_tiledPfS_S_iii'
GPGPU-Sim uArch: Shader 28 bind to kernel 1 '_Z10gemm_tiledPfS_S_iii'
GPGPU-Sim uArch: Shader 8 bind to kernel 1 '_Z10gemm_tiledPfS_S_iii'
GPGPU-Sim uArch: Shader 26 bind to kernel 1 '_Z10gemm_tiledPfS_S_iii'
GPGPU-Sim uArch: Shader 17 bind to kernel 1 '_Z10gemm_tiledPfS_S_iii'
GPGPU-Sim uArch: Shader 14 bind to kernel 1 '_Z10gemm_tiledPfS_S_iii'
GPGPU-Sim uArch: Shader 9 bind to kernel 1 '_Z10gemm_tiledPfS_S_iii'
GPGPU-Sim uArch: Shader 25 bind to kernel 1 '_Z10gemm_tiledPfS_S_iii'
GPGPU-Sim uArch: Shader 45 bind to kernel 1 '_Z10gemm_tiledPfS_S_iii'
GPGPU-Sim uArch: Shader 4 bind to kernel 1 '_Z10gemm_tiledPfS_S_iii'
GPGPU-Sim uArch: Shader 27 bind to kernel 1 '_Z10gemm_tiledPfS_S_iii'
GPGPU-Sim uArch: Shader 22 bind to kernel 1 '_Z10gemm_tiledPfS_S_iii'
GPGPU-Sim uArch: Shader 34 bind to kernel 1 '_Z10gemm_tiledPfS_S_iii'
GPGPU-Sim uArch: Shader 30 bind to kernel 1 '_Z10gemm_tiledPfS_S_iii'
GPGPU-Sim uArch: Shader 23 bind to kernel 1 '_Z10gemm_tiledPfS_S_iii'
GPGPU-Sim uArch: Shader 16 bind to kernel 1 '_Z10gemm_tiledPfS_S_iii'
GPGPU-Sim uArch: Shader 7 bind to kernel 1 '_Z10gemm_tiledPfS_S_iii'
GPGPU-Sim uArch: Shader 5 bind to kernel 1 '_Z10gemm_tiledPfS_S_iii'
GPGPU-Sim uArch: Shader 13 bind to kernel 1 '_Z10gemm_tiledPfS_S_iii'
GPGPU-Sim uArch: Shader 0 bind to kernel 1 '_Z10gemm_tiledPfS_S_iii'
GPGPU-Sim uArch: Shader 10 bind to kernel 1 '_Z10gemm_tiledPfS_S_iii'
GPGPU-Sim uArch: Shader 11 bind to kernel 1 '_Z10gemm_tiledPfS_S_iii'
GPGPU-Sim uArch: Shader 38 bind to kernel 1 '_Z10gemm_tiledPfS_S_iii'
GPGPU-Sim uArch: Shader 29 bind to kernel 1 '_Z10gemm_tiledPfS_S_iii'
GPGPU-Sim uArch: Shader 1 bind to kernel 1 '_Z10gemm_tiledPfS_S_iii'
GPGPU-Sim uArch: Shader 3 bind to kernel 1 '_Z10gemm_tiledPfS_S_iii'
GPGPU-Sim uArch: Shader 43 bind to kernel 1 '_Z10gemm_tiledPfS_S_iii'
GPGPU-Sim uArch: Shader 20 bind to kernel 1 '_Z10gemm_tiledPfS_S_iii'
GPGPU-Sim uArch: Shader 31 bind to kernel 1 '_Z10gemm_tiledPfS_S_iii'
GPGPU-Sim uArch: Shader 6 bind to kernel 1 '_Z10gemm_tiledPfS_S_iii'
GPGPU-Sim uArch: Shader 33 bind to kernel 1 '_Z10gemm_tiledPfS_S_iii'
GPGPU-Sim uArch: Shader 19 bind to kernel 1 '_Z10gemm_tiledPfS_S_iii'
GPGPU-Sim uArch: Shader 42 bind to kernel 1 '_Z10gemm_tiledPfS_S_iii'
GPGPU-Sim uArch: Shader 39 bind to kernel 1 '_Z10gemm_tiledPfS_S_iii'
GPGPU-Sim uArch: Shader 44 bind to kernel 1 '_Z10gemm_tiledPfS_S_iii'
GPGPU-Sim uArch: Shader 2 bind to kernel 1 '_Z10gemm_tiledPfS_S_iii'
GPGPU-Sim uArch: Shader 12 bind to kernel 1 '_Z10gemm_tiledPfS_S_iii'
GPGPU-Sim uArch: Shader 18 bind to kernel 1 '_Z10gemm_tiledPfS_S_iii'
GPGPU-Sim uArch: Shader 37 bind to kernel 1 '_Z10gemm_tiledPfS_S_iii'
GPGPU-Sim uArch: Shader 35 bind to kernel 1 '_Z10gemm_tiledPfS_S_iii'
GPGPU-Sim uArch: Shader 32 bind to kernel 1 '_Z10gemm_tiledPfS_S_iii'
GPGPU-Sim uArch: Shader 15 bind to kernel 1 '_Z10gemm_tiledPfS_S_iii'
GPGPU-Sim uArch: Shader 36 bind to kernel 1 '_Z10gemm_tiledPfS_S_iii'
GPGPU-Sim uArch: Shader 24 bind to kernel 1 '_Z10gemm_tiledPfS_S_iii'
GPGPU-Sim uArch: Shader 40 bind to kernel 1 '_Z10gemm_tiledPfS_S_iii'
GPGPU-Sim uArch: Shader 21 bind to kernel 1 '_Z10gemm_tiledPfS_S_iii'
GPGPU-Sim uArch: Shader 41 bind to kernel 1 '_Z10gemm_tiledPfS_S_iii'
GPGPU-Sim uArch: Shader 17 bind to kernel 1 '_Z10gemm_tiledPfS_S_iii'
GPGPU-Sim uArch: Shader 28 bind to kernel 1 '_Z10gemm_tiledPfS_S_iii'
GPGPU-Sim uArch: Shader 14 bind to kernel 1 '_Z10gemm_tiledPfS_S_iii'
GPGPU-Sim uArch: Shader 8 bind to kernel 1 '_Z10gemm_tiledPfS_S_iii'
GPGPU-Sim uArch: Shader 9 bind to kernel 1 '_Z10gemm_tiledPfS_S_iii'
GPGPU-Sim uArch: Shader 25 bind to kernel 1 '_Z10gemm_tiledPfS_S_iii'
GPGPU-Sim uArch: Shader 26 bind to kernel 1 '_Z10gemm_tiledPfS_S_iii'
GPGPU-Sim uArch: Shader 16 bind to kernel 1 '_Z10gemm_tiledPfS_S_iii'
GPGPU-Sim uArch: Shader 4 bind to kernel 1 '_Z10gemm_tiledPfS_S_iii'
GPGPU-Sim uArch: Shader 30 bind to kernel 1 '_Z10gemm_tiledPfS_S_iii'
GPGPU-Sim uArch: Shader 27 bind to kernel 1 '_Z10gemm_tiledPfS_S_iii'
GPGPU-Sim uArch: Shader 34 bind to kernel 1 '_Z10gemm_tiledPfS_S_iii'
GPGPU-Sim uArch: Shader 45 bind to kernel 1 '_Z10gemm_tiledPfS_S_iii'
GPGPU-Sim uArch: Shader 22 bind to kernel 1 '_Z10gemm_tiledPfS_S_iii'
GPGPU-Sim uArch: Shader 5 bind to kernel 1 '_Z10gemm_tiledPfS_S_iii'
GPGPU-Sim uArch: Shader 7 bind to kernel 1 '_Z10gemm_tiledPfS_S_iii'
GPGPU-Sim uArch: Shader 3 bind to kernel 1 '_Z10gemm_tiledPfS_S_iii'
GPGPU-Sim uArch: Shader 23 bind to kernel 1 '_Z10gemm_tiledPfS_S_iii'
GPGPU-Sim uArch: Shader 29 bind to kernel 1 '_Z10gemm_tiledPfS_S_iii'
GPGPU-Sim uArch: Shader 10 bind to kernel 1 '_Z10gemm_tiledPfS_S_iii'
GPGPU-Sim uArch: Shader 13 bind to kernel 1 '_Z10gemm_tiledPfS_S_iii'
GPGPU-Sim uArch: Shader 11 bind to kernel 1 '_Z10gemm_tiledPfS_S_iii'
GPGPU-Sim uArch: Shader 38 bind to kernel 1 '_Z10gemm_tiledPfS_S_iii'
GPGPU-Sim uArch: Shader 43 bind to kernel 1 '_Z10gemm_tiledPfS_S_iii'
GPGPU-Sim uArch: Shader 0 bind to kernel 1 '_Z10gemm_tiledPfS_S_iii'
GPGPU-Sim uArch: Shader 1 bind to kernel 1 '_Z10gemm_tiledPfS_S_iii'
GPGPU-Sim uArch: Shader 31 bind to kernel 1 '_Z10gemm_tiledPfS_S_iii'
GPGPU-Sim uArch: Shader 20 bind to kernel 1 '_Z10gemm_tiledPfS_S_iii'
GPGPU-Sim uArch: Shader 6 bind to kernel 1 '_Z10gemm_tiledPfS_S_iii'
GPGPU-Sim uArch: Shader 33 bind to kernel 1 '_Z10gemm_tiledPfS_S_iii'
GPGPU-Sim uArch: Shader 19 bind to kernel 1 '_Z10gemm_tiledPfS_S_iii'
GPGPU-Sim uArch: Shader 42 bind to kernel 1 '_Z10gemm_tiledPfS_S_iii'
GPGPU-Sim uArch: Shader 2 bind to kernel 1 '_Z10gemm_tiledPfS_S_iii'
GPGPU-Sim uArch: Shader 39 bind to kernel 1 '_Z10gemm_tiledPfS_S_iii'
GPGPU-Sim uArch: Shader 32 bind to kernel 1 '_Z10gemm_tiledPfS_S_iii'
GPGPU-Sim uArch: Shader 12 bind to kernel 1 '_Z10gemm_tiledPfS_S_iii'
GPGPU-Sim uArch: Shader 35 bind to kernel 1 '_Z10gemm_tiledPfS_S_iii'
GPGPU-Sim uArch: Shader 37 bind to kernel 1 '_Z10gemm_tiledPfS_S_iii'
GPGPU-Sim uArch: Shader 44 bind to kernel 1 '_Z10gemm_tiledPfS_S_iii'
GPGPU-Sim uArch: Shader 18 bind to kernel 1 '_Z10gemm_tiledPfS_S_iii'
GPGPU-Sim uArch: Shader 17 bind to kernel 1 '_Z10gemm_tiledPfS_S_iii'
GPGPU-Sim uArch: Shader 21 bind to kernel 1 '_Z10gemm_tiledPfS_S_iii'
GPGPU-Sim uArch: Shader 40 bind to kernel 1 '_Z10gemm_tiledPfS_S_iii'
GPGPU-Sim uArch: Shader 36 bind to kernel 1 '_Z10gemm_tiledPfS_S_iii'
GPGPU-Sim uArch: Shader 41 bind to kernel 1 '_Z10gemm_tiledPfS_S_iii'
GPGPU-Sim uArch: Shader 24 bind to kernel 1 '_Z10gemm_tiledPfS_S_iii'
GPGPU-Sim uArch: Shader 4 bind to kernel 1 '_Z10gemm_tiledPfS_S_iii'
GPGPU-Sim uArch: Shader 25 bind to kernel 1 '_Z10gemm_tiledPfS_S_iii'
GPGPU-Sim uArch: Shader 15 bind to kernel 1 '_Z10gemm_tiledPfS_S_iii'
GPGPU-Sim uArch: Shader 28 bind to kernel 1 '_Z10gemm_tiledPfS_S_iii'
GPGPU-Sim uArch: Shader 8 bind to kernel 1 '_Z10gemm_tiledPfS_S_iii'
GPGPU-Sim uArch: Shader 16 bind to kernel 1 '_Z10gemm_tiledPfS_S_iii'
GPGPU-Sim uArch: Shader 26 bind to kernel 1 '_Z10gemm_tiledPfS_S_iii'
GPGPU-Sim uArch: Shader 34 bind to kernel 1 '_Z10gemm_tiledPfS_S_iii'
GPGPU-Sim uArch: Shader 27 bind to kernel 1 '_Z10gemm_tiledPfS_S_iii'
GPGPU-Sim uArch: Shader 14 bind to kernel 1 '_Z10gemm_tiledPfS_S_iii'
GPGPU-Sim uArch: Shader 11 bind to kernel 1 '_Z10gemm_tiledPfS_S_iii'
GPGPU-Sim uArch: Shader 9 bind to kernel 1 '_Z10gemm_tiledPfS_S_iii'
GPGPU-Sim uArch: Shader 30 bind to kernel 1 '_Z10gemm_tiledPfS_S_iii'
GPGPU-Sim uArch: Shader 5 bind to kernel 1 '_Z10gemm_tiledPfS_S_iii'
GPGPU-Sim uArch: Shader 45 bind to kernel 1 '_Z10gemm_tiledPfS_S_iii'
GPGPU-Sim uArch: Shader 22 bind to kernel 1 '_Z10gemm_tiledPfS_S_iii'
GPGPU-Sim uArch: Shader 3 bind to kernel 1 '_Z10gemm_tiledPfS_S_iii'
GPGPU-Sim uArch: Shader 43 bind to kernel 1 '_Z10gemm_tiledPfS_S_iii'
GPGPU-Sim uArch: Shader 13 bind to kernel 1 '_Z10gemm_tiledPfS_S_iii'
GPGPU-Sim uArch: Shader 29 bind to kernel 1 '_Z10gemm_tiledPfS_S_iii'
GPGPU-Sim uArch: Shader 31 bind to kernel 1 '_Z10gemm_tiledPfS_S_iii'
GPGPU-Sim uArch: Shader 7 bind to kernel 1 '_Z10gemm_tiledPfS_S_iii'
GPGPU-Sim uArch: Shader 10 bind to kernel 1 '_Z10gemm_tiledPfS_S_iii'
GPGPU-Sim uArch: Shader 38 bind to kernel 1 '_Z10gemm_tiledPfS_S_iii'
GPGPU-Sim uArch: Shader 20 bind to kernel 1 '_Z10gemm_tiledPfS_S_iii'
GPGPU-Sim uArch: Shader 0 bind to kernel 1 '_Z10gemm_tiledPfS_S_iii'
GPGPU-Sim uArch: Shader 23 bind to kernel 1 '_Z10gemm_tiledPfS_S_iii'
GPGPU-Sim uArch: Shader 1 bind to kernel 1 '_Z10gemm_tiledPfS_S_iii'
GPGPU-Sim uArch: Shader 6 bind to kernel 1 '_Z10gemm_tiledPfS_S_iii'
GPGPU-Sim uArch: Shader 33 bind to kernel 1 '_Z10gemm_tiledPfS_S_iii'
GPGPU-Sim uArch: Shader 42 bind to kernel 1 '_Z10gemm_tiledPfS_S_iii'
GPGPU-Sim uArch: Shader 19 bind to kernel 1 '_Z10gemm_tiledPfS_S_iii'
GPGPU-Sim uArch: Shader 2 bind to kernel 1 '_Z10gemm_tiledPfS_S_iii'
GPGPU-Sim uArch: Shader 44 bind to kernel 1 '_Z10gemm_tiledPfS_S_iii'
GPGPU-Sim uArch: Shader 39 bind to kernel 1 '_Z10gemm_tiledPfS_S_iii'
[...]

------------------------------------------------------------------------

Row_Buffer_Locality = 0.859298
Row_Buffer_Locality_read = 0.896277
Row_Buffer_Locality_write = 0.718310
Bank_Level_Parallism = 4.425704
Bank_Level_Parallism_Col = 4.503021
Bank_Level_Parallism_Ready = 2.662803
write_to_read_ratio_blp_rw_average = 0.515059
GrpLevelPara = 2.298142 

BW Util details:
bwutil = 0.065782 
total_CMD = 1753907 
util_bw = 115376 
Wasted_Col = 50826 
Wasted_Row = 19861 
Idle = 1567844 

BW Util Bottlenecks: 
RCDc_limit = 19980 
RCDWRc_limit = 6096 
WTRc_limit = 23392 
RTWc_limit = 28372 
CCDLc_limit = 22473 
rwq = 0 
CCDLc_limit_alone = 18351 
WTRc_limit_alone = 21560 
RTWc_limit_alone = 26082 

Commands details: 
total_CMD = 1753907 
n_nop = 1720321 
Read = 14076 
Write = 0 
L2_Alloc = 0 
L2_WB = 14768 
n_act = 2500 
n_pre = 2484 
n_ref = 0 
n_req = 17768 
total_req = 28844 

Dual Bus Interface Util: 
issued_total_row = 4984 
issued_total_col = 28844 
Row_Bus_Util =  0.002842 
CoL_Bus_Util = 0.016446 
Either_Row_CoL_Bus_Util = 0.019149 
Issued_on_Two_Bus_Simul_Util = 0.000138 
issued_two_Eff = 0.007205 
queue_avg = 1.964635 


dram_util_bins: 0 0 0 0 0 0 0 0 0 0
dram_eff_bins: 0 0 0 0 0 0 0 0 0 0
mrqq: max=64 avg=1.96464
Memory Partition 12: 
Cache L2_bank_024:
MSHR contents

Cache L2_bank_025:
MSHR contents

In Dram Latency Queue (total = 2): 
Ready @ 567335 -   mf: uid=12687046, sid4294967295:w4294967295, part=12, addr=0xc06ff180, store, size=128, L2_WRBK  status = IN_PARTITION_DRAM_LATENCY_QUEUE (567081), 
Ready @ 567361 -   mf: uid=12687048, sid4294967295:w4294967295, part=12, addr=0xc06fe180, store, size=128, L2_WRBK  status = IN_PARTITION_DRAM_LATENCY_QUEUE (567107), 
DRAM[12]: 16 bks, busW=2 BL=16 CL=24, tRRD=12 tCCD=4, tRCD=24 tRAS=55 tRP=24 tRC=78
n_cmd=1753907 n_nop=1720094 n_act=2534 n_pre=2518 n_ref_event=0 n_req=17887 n_rd=14188 n_rd_L2_A=0 n_write=0 n_wr_bk=14796 bw_util=0.0661
n_activity=233324 dram_eff=0.4969
bk0: 896a 1706791i bk1: 904a 1706557i bk2: 872a 1705796i bk3: 880a 1706962i bk4: 916a 1705405i bk5: 932a 1702894i bk6: 896a 1706098i bk7: 904a 1705240i bk8: 852a 1701430i bk9: 860a 1705017i bk10: 868a 1705130i bk11: 872a 1705474i bk12: 884a 1706235i bk13: 904a 1705805i bk14: 864a 1709371i bk15: 884a 1708832i 

------------------------------------------------------------------------

Row_Buffer_Locality = 0.858333
Row_Buffer_Locality_read = 0.893854
Row_Buffer_Locality_write = 0.722087
Bank_Level_Parallism = 4.512949
Bank_Level_Parallism_Col = 4.562453
Bank_Level_Parallism_Ready = 2.671508
write_to_read_ratio_blp_rw_average = 0.511350
GrpLevelPara = 2.310423 

BW Util details:
bwutil = 0.066102 
total_CMD = 1753907 
util_bw = 115936 
Wasted_Col = 49645 
Wasted_Row = 18544 
Idle = 1569782 

BW Util Bottlenecks: 
RCDc_limit = 19851 
RCDWRc_limit = 5996 
WTRc_limit = 24148 
RTWc_limit = 26528 
CCDLc_limit = 22068 
rwq = 0 
CCDLc_limit_alone = 18027 
WTRc_limit_alone = 22130 
RTWc_limit_alone = 24505 

Commands details: 
total_CMD = 1753907 
n_nop = 1720094 
Read = 14188 
Write = 0 
L2_Alloc = 0 
L2_WB = 14796 
n_act = 2534 
n_pre = 2518 
n_ref = 0 
n_req = 17887 
total_req = 28984 

Dual Bus Interface Util: 
issued_total_row = 5052 
issued_total_col = 28984 
Row_Bus_Util =  0.002880 
CoL_Bus_Util = 0.016525 
Either_Row_CoL_Bus_Util = 0.019279 
Issued_on_Two_Bus_Simul_Util = 0.000127 
issued_two_Eff = 0.006595 
queue_avg = 1.935322 


dram_util_bins: 0 0 0 0 0 0 0 0 0 0
dram_eff_bins: 0 0 0 0 0 0 0 0 0 0
mrqq: max=64 avg=1.93532
Memory Partition 13: 
Cache L2_bank_026:
MSHR contents

Cache L2_bank_027:
MSHR contents

In Dram Latency Queue (total = 2): 
Ready @ 567311 -   mf: uid=12687045, sid4294967295:w4294967295, part=13, addr=0xc06ff080, store, size=128, L2_WRBK  status = IN_PARTITION_DRAM_LATENCY_QUEUE (567057), 
Ready @ 567356 -   mf: uid=12687047, sid4294967295:w4294967295, part=13, addr=0xc06fe080, store, size=128, L2_WRBK  status = IN_PARTITION_DRAM_LATENCY_QUEUE (567102), 
DRAM[13]: 16 bks, busW=2 BL=16 CL=24, tRRD=12 tCCD=4, tRCD=24 tRAS=55 tRP=24 tRC=78
n_cmd=1753907 n_nop=1720104 n_act=2576 n_pre=2560 n_ref_event=0 n_req=17847 n_rd=14156 n_rd_L2_A=0 n_write=0 n_wr_bk=14764 bw_util=0.06596
n_activity=236030 dram_eff=0.4901
bk0: 892a 1706657i bk1: 908a 1706894i bk2: 864a 1704950i bk3: 876a 1705875i bk4: 912a 1706733i bk5: 912a 1702982i bk6: 904a 1706924i bk7: 908a 1707000i bk8: 840a 1705620i bk9: 852a 1703459i bk10: 868a 1707333i bk11: 872a 1706736i bk12: 888a 1706065i bk13: 912a 1705998i bk14: 864a 1708759i bk15: 884a 1707671i 

------------------------------------------------------------------------

Row_Buffer_Locality = 0.855662
Row_Buffer_Locality_read = 0.893049
Row_Buffer_Locality_write = 0.712273
Bank_Level_Parallism = 4.418585
Bank_Level_Parallism_Col = 4.484416
Bank_Level_Parallism_Ready = 2.581823
write_to_read_ratio_blp_rw_average = 0.493174
GrpLevelPara = 2.304331 

BW Util details:
bwutil = 0.065956 
total_CMD = 1753907 
util_bw = 115680 
Wasted_Col = 50546 
Wasted_Row = 20058 
Idle = 1567623 

BW Util Bottlenecks: 
RCDc_limit = 20412 
RCDWRc_limit = 6303 
WTRc_limit = 25709 
RTWc_limit = 25998 
CCDLc_limit = 22433 
rwq = 0 
CCDLc_limit_alone = 18210 
WTRc_limit_alone = 23475 
RTWc_limit_alone = 24009 

Commands details: 
total_CMD = 1753907 
n_nop = 1720104 
Read = 14156 
Write = 0 
L2_Alloc = 0 
L2_WB = 14764 
n_act = 2576 
n_pre = 2560 
n_ref = 0 
n_req = 17847 
total_req = 28920 

Dual Bus Interface Util: 
issued_total_row = 5136 
issued_total_col = 28920 
Row_Bus_Util =  0.002928 
CoL_Bus_Util = 0.016489 
Either_Row_CoL_Bus_Util = 0.019273 
Issued_on_Two_Bus_Simul_Util = 0.000144 
issued_two_Eff = 0.007485 
queue_avg = 1.957918 


dram_util_bins: 0 0 0 0 0 0 0 0 0 0
dram_eff_bins: 0 0 0 0 0 0 0 0 0 0
mrqq: max=64 avg=1.95792
Memory Partition 14: 
Cache L2_bank_028:
MSHR contents

Cache L2_bank_029:
MSHR contents

In Dram Latency Queue (total = 2): 
Ready @ 567236 -   mf: uid=12687040, sid4294967295:w4294967295, part=14, addr=0xc06fe300, store, size=128, L2_WRBK  status = IN_PARTITION_DRAM_LATENCY_QUEUE (566982), 
Ready @ 567244 -   mf: uid=12687041, sid4294967295:w4294967295, part=14, addr=0xc06ff300, store, size=128, L2_WRBK  status = IN_PARTITION_DRAM_LATENCY_QUEUE (566990), 
DRAM[14]: 16 bks, busW=2 BL=16 CL=24, tRRD=12 tCCD=4, tRCD=24 tRAS=55 tRP=24 tRC=78
n_cmd=1753907 n_nop=1720052 n_act=2565 n_pre=2549 n_ref_event=0 n_req=17896 n_rd=14196 n_rd_L2_A=0 n_write=0 n_wr_bk=14800 bw_util=0.06613
n_activity=234051 dram_eff=0.4956
bk0: 900a 1704181i bk1: 912a 1706271i bk2: 880a 1703633i bk3: 896a 1706641i bk4: 912a 1705978i bk5: 924a 1706047i bk6: 896a 1708848i bk7: 900a 1706200i bk8: 852a 1704315i bk9: 848a 1702594i bk10: 868a 1704737i bk11: 876a 1702349i bk12: 884a 1708242i bk13: 904a 1706465i bk14: 864a 1706480i bk15: 880a 1708137i 

------------------------------------------------------------------------

Row_Buffer_Locality = 0.856672
Row_Buffer_Locality_read = 0.893562
Row_Buffer_Locality_write = 0.715135
Bank_Level_Parallism = 4.502176
Bank_Level_Parallism_Col = 4.538997
Bank_Level_Parallism_Ready = 2.658349
write_to_read_ratio_blp_rw_average = 0.507191
GrpLevelPara = 2.320326 

BW Util details:
bwutil = 0.066129 
total_CMD = 1753907 
util_bw = 115984 
Wasted_Col = 50395 
Wasted_Row = 18530 
Idle = 1568998 

BW Util Bottlenecks: 
RCDc_limit = 19983 
RCDWRc_limit = 6340 
WTRc_limit = 25275 
RTWc_limit = 28386 
CCDLc_limit = 23013 
rwq = 0 
CCDLc_limit_alone = 18263 
WTRc_limit_alone = 23164 
RTWc_limit_alone = 25747 

Commands details: 
total_CMD = 1753907 
n_nop = 1720052 
Read = 14196 
Write = 0 
L2_Alloc = 0 
L2_WB = 14800 
n_act = 2565 
n_pre = 2549 
n_ref = 0 
n_req = 17896 
total_req = 28996 

Dual Bus Interface Util: 
issued_total_row = 5114 
issued_total_col = 28996 
Row_Bus_Util =  0.002916 
CoL_Bus_Util = 0.016532 
Either_Row_CoL_Bus_Util = 0.019303 
Issued_on_Two_Bus_Simul_Util = 0.000145 
issued_two_Eff = 0.007532 
queue_avg = 1.966182 


dram_util_bins: 0 0 0 0 0 0 0 0 0 0
dram_eff_bins: 0 0 0 0 0 0 0 0 0 0
mrqq: max=64 avg=1.96618
Memory Partition 15: 
Cache L2_bank_030:
MSHR contents

Cache L2_bank_031:
MSHR contents

In Dram Latency Queue (total = 2): 
Ready @ 567230 -   mf: uid=12687038, sid4294967295:w4294967295, part=15, addr=0xc06ff200, store, size=128, L2_WRBK  status = IN_PARTITION_DRAM_LATENCY_QUEUE (566976), 
Ready @ 567262 -   mf: uid=12687044, sid4294967295:w4294967295, part=15, addr=0xc06fe200, store, size=128, L2_WRBK  status = IN_PARTITION_DRAM_LATENCY_QUEUE (567008), 
DRAM[15]: 16 bks, busW=2 BL=16 CL=24, tRRD=12 tCCD=4, tRCD=24 tRAS=55 tRP=24 tRC=78
n_cmd=1753907 n_nop=1720105 n_act=2575 n_pre=2559 n_ref_event=0 n_req=17862 n_rd=14168 n_rd_L2_A=0 n_write=0 n_wr_bk=14776 bw_util=0.06601
n_activity=237230 dram_eff=0.488
bk0: 888a 1703345i bk1: 904a 1704629i bk2: 876a 1706860i bk3: 884a 1708471i bk4: 904a 1708467i bk5: 912a 1709139i bk6: 896a 1707273i bk7: 916a 1703609i bk8: 840a 1704023i bk9: 856a 1705257i bk10: 868a 1705384i bk11: 876a 1705192i bk12: 888a 1704496i bk13: 912a 1706117i bk14: 864a 1708789i bk15: 884a 1706457i 

------------------------------------------------------------------------

Row_Buffer_Locality = 0.855839
Row_Buffer_Locality_read = 0.893845
Row_Buffer_Locality_write = 0.710070
Bank_Level_Parallism = 4.390921
Bank_Level_Parallism_Col = 4.464133
Bank_Level_Parallism_Ready = 2.595465
write_to_read_ratio_blp_rw_average = 0.504117
GrpLevelPara = 2.292206 

BW Util details:
bwutil = 0.066010 
total_CMD = 1753907 
util_bw = 115776 
Wasted_Col = 51506 
Wasted_Row = 20492 
Idle = 1566133 

BW Util Bottlenecks: 
RCDc_limit = 20637 
RCDWRc_limit = 6606 
WTRc_limit = 24811 
RTWc_limit = 26852 
CCDLc_limit = 22022 
rwq = 0 
CCDLc_limit_alone = 18012 
WTRc_limit_alone = 22868 
RTWc_limit_alone = 24785 

Commands details: 
total_CMD = 1753907 
n_nop = 1720105 
Read = 14168 
Write = 0 
L2_Alloc = 0 
L2_WB = 14776 
n_act = 2575 
n_pre = 2559 
n_ref = 0 
n_req = 17862 
total_req = 28944 

Dual Bus Interface Util: 
issued_total_row = 5134 
issued_total_col = 28944 
Row_Bus_Util =  0.002927 
CoL_Bus_Util = 0.016503 
Either_Row_CoL_Bus_Util = 0.019272 
Issued_on_Two_Bus_Simul_Util = 0.000157 
issued_two_Eff = 0.008165 
queue_avg = 1.952700 


dram_util_bins: 0 0 0 0 0 0 0 0 0 0
dram_eff_bins: 0 0 0 0 0 0 0 0 0 0
mrqq: max=64 avg=1.9527

========= L2 cache stats =========
L2_cache_bank[0]: Access = 44552, Miss = 15524, Miss_rate = 0.348, Pending_hits = 2641, Reservation_fails = 1490
L2_cache_bank[1]: Access = 44540, Miss = 15552, Miss_rate = 0.349, Pending_hits = 2553, Reservation_fails = 1774
L2_cache_bank[2]: Access = 44536, Miss = 15536, Miss_rate = 0.349, Pending_hits = 2592, Reservation_fails = 1182
L2_cache_bank[3]: Access = 44548, Miss = 15540, Miss_rate = 0.349, Pending_hits = 2606, Reservation_fails = 1774
L2_cache_bank[4]: Access = 44544, Miss = 15556, Miss_rate = 0.349, Pending_hits = 2540, Reservation_fails = 1185
L2_cache_bank[5]: Access = 44552, Miss = 15552, Miss_rate = 0.349, Pending_hits = 2679, Reservation_fails = 1715
L2_cache_bank[6]: Access = 44552, Miss = 15520, Miss_rate = 0.348, Pending_hits = 2552, Reservation_fails = 1498
L2_cache_bank[7]: Access = 44548, Miss = 15520, Miss_rate = 0.348, Pending_hits = 2570, Reservation_fails = 1323
L2_cache_bank[8]: Access = 44532, Miss = 15524, Miss_rate = 0.349, Pending_hits = 2601, Reservation_fails = 1673
L2_cache_bank[9]: Access = 44540, Miss = 15572, Miss_rate = 0.350, Pending_hits = 2596, Reservation_fails = 2209
L2_cache_bank[10]: Access = 44552, Miss = 15572, Miss_rate = 0.350, Pending_hits = 2672, Reservation_fails = 1401
L2_cache_bank[11]: Access = 44544, Miss = 15576, Miss_rate = 0.350, Pending_hits = 2585, Reservation_fails = 1931
L2_cache_bank[12]: Access = 44548, Miss = 15552, Miss_rate = 0.349, Pending_hits = 2535, Reservation_fails = 1162
L2_cache_bank[13]: Access = 44548, Miss = 15552, Miss_rate = 0.349, Pending_hits = 2611, Reservation_fails = 1626
L2_cache_bank[14]: Access = 44544, Miss = 15584, Miss_rate = 0.350, Pending_hits = 2600, Reservation_fails = 1428
L2_cache_bank[15]: Access = 44540, Miss = 15560, Miss_rate = 0.349, Pending_hits = 2675, Reservation_fails = 1766
L2_cache_bank[16]: Access = 44548, Miss = 15508, Miss_rate = 0.348, Pending_hits = 2479, Reservation_fails = 1405
L2_cache_bank[17]: Access = 44536, Miss = 15476, Miss_rate = 0.347, Pending_hits = 2619, Reservation_fails = 1943
L2_cache_bank[18]: Access = 44540, Miss = 15500, Miss_rate = 0.348, Pending_hits = 2524, Reservation_fails = 843
L2_cache_bank[19]: Access = 44552, Miss = 15488, Miss_rate = 0.348, Pending_hits = 2624, Reservation_fails = 1668
L2_cache_bank[20]: Access = 44532, Miss = 15468, Miss_rate = 0.347, Pending_hits = 2584, Reservation_fails = 1044
L2_cache_bank[21]: Access = 44556, Miss = 15484, Miss_rate = 0.348, Pending_hits = 2486, Reservation_fails = 1520
L2_cache_bank[22]: Access = 44552, Miss = 15500, Miss_rate = 0.348, Pending_hits = 2543, Reservation_fails = 1264
L2_cache_bank[23]: Access = 44544, Miss = 15472, Miss_rate = 0.347, Pending_hits = 2472, Reservation_fails = 1762
L2_cache_bank[24]: Access = 44532, Miss = 15536, Miss_rate = 0.349, Pending_hits = 2545, Reservation_fails = 1226
L2_cache_bank[25]: Access = 44544, Miss = 15548, Miss_rate = 0.349, Pending_hits = 2679, Reservation_fails = 2104
L2_cache_bank[26]: Access = 44544, Miss = 15524, Miss_rate = 0.349, Pending_hits = 2473, Reservation_fails = 1094
L2_cache_bank[27]: Access = 44532, Miss = 15528, Miss_rate = 0.349, Pending_hits = 2672, Reservation_fails = 2111
L2_cache_bank[28]: Access = 44548, Miss = 15540, Miss_rate = 0.349, Pending_hits = 2568, Reservation_fails = 1136
L2_cache_bank[29]: Access = 44540, Miss = 15552, Miss_rate = 0.349, Pending_hits = 2565, Reservation_fails = 1700
L2_cache_bank[30]: Access = 44536, Miss = 15528, Miss_rate = 0.349, Pending_hits = 2588, Reservation_fails = 1241
L2_cache_bank[31]: Access = 44552, Miss = 15536, Miss_rate = 0.349, Pending_hits = 2454, Reservation_fails = 1507
L2_total_cache_accesses = 1425408
L2_total_cache_misses = 496980
L2_total_cache_miss_rate = 0.3487
L2_total_cache_pending_hits = 82483
L2_total_cache_reservation_fails = 48705
L2_total_cache_breakdown:
	L2_cache_stats_breakdown[GLOBAL_ACC_R][HIT] = 845945
	L2_cache_stats_breakdown[GLOBAL_ACC_R][HIT_RESERVED] = 82483
	L2_cache_stats_breakdown[GLOBAL_ACC_R][MISS] = 56661
	L2_cache_stats_breakdown[GLOBAL_ACC_R][RESERVATION_FAIL] = 48705
	L2_cache_stats_breakdown[GLOBAL_ACC_R][SECTOR_MISS] = 169983
	L2_cache_stats_breakdown[GLOBAL_ACC_R][MSHR_HIT] = 82483
	L2_cache_stats_breakdown[LOCAL_ACC_R][HIT] = 0
	L2_cache_stats_breakdown[LOCAL_ACC_R][HIT_RESERVED] = 0
	L2_cache_stats_breakdown[LOCAL_ACC_R][MISS] = 0
	L2_cache_stats_breakdown[LOCAL_ACC_R][RESERVATION_FAIL] = 0
	L2_cache_stats_breakdown[LOCAL_ACC_R][SECTOR_MISS] = 0
	L2_cache_stats_breakdown[LOCAL_ACC_R][MSHR_HIT] = 0
	L2_cache_stats_breakdown[CONST_ACC_R][HIT] = 0
	L2_cache_stats_breakdown[CONST_ACC_R][HIT_RESERVED] = 0
	L2_cache_stats_breakdown[CONST_ACC_R][MISS] = 0
	L2_cache_stats_breakdown[CONST_ACC_R][RESERVATION_FAIL] = 0
	L2_cache_stats_breakdown[CONST_ACC_R][SECTOR_MISS] = 0
	L2_cache_stats_breakdown[CONST_ACC_R][MSHR_HIT] = 0
	L2_cache_stats_breakdown[TEXTURE_ACC_R][HIT] = 0
	L2_cache_stats_breakdown[TEXTURE_ACC_R][HIT_RESERVED] = 0
	L2_cache_stats_breakdown[TEXTURE_ACC_R][MISS] = 0
	L2_cache_stats_breakdown[TEXTURE_ACC_R][RESERVATION_FAIL] = 0
	L2_cache_stats_breakdown[TEXTURE_ACC_R][SECTOR_MISS] = 0
	L2_cache_stats_breakdown[TEXTURE_ACC_R][MSHR_HIT] = 0
	L2_cache_stats_breakdown[GLOBAL_ACC_W][HIT] = 0
	L2_cache_stats_breakdown[GLOBAL_ACC_W][HIT_RESERVED] = 0
	L2_cache_stats_breakdown[GLOBAL_ACC_W][MISS] = 67584
	L2_cache_stats_breakdown[GLOBAL_ACC_W][RESERVATION_FAIL] = 0
	L2_cache_stats_breakdown[GLOBAL_ACC_W][SECTOR_MISS] = 202752
	L2_cache_stats_breakdown[GLOBAL_ACC_W][MSHR_HIT] = 0
	L2_cache_stats_breakdown[LOCAL_ACC_W][HIT] = 0
	L2_cache_stats_breakdown[LOCAL_ACC_W][HIT_RESERVED] = 0
	L2_cache_stats_breakdown[LOCAL_ACC_W][MISS] = 0
	L2_cache_stats_breakdown[LOCAL_ACC_W][RESERVATION_FAIL] = 0
	L2_cache_stats_breakdown[LOCAL_ACC_W][SECTOR_MISS] = 0
	L2_cache_stats_breakdown[LOCAL_ACC_W][MSHR_HIT] = 0
	L2_cache_stats_breakdown[L1_WRBK_ACC][HIT] = 0
	L2_cache_stats_breakdown[L1_WRBK_ACC][HIT_RESERVED] = 0
	L2_cache_stats_breakdown[L1_WRBK_ACC][MISS] = 0
	L2_cache_stats_breakdown[L1_WRBK_ACC][RESERVATION_FAIL] = 0
	L2_cache_stats_breakdown[L1_WRBK_ACC][SECTOR_MISS] = 0
	L2_cache_stats_breakdown[L1_WRBK_ACC][MSHR_HIT] = 0
	L2_cache_stats_breakdown[L2_WRBK_ACC][HIT] = 0
	L2_cache_stats_breakdown[L2_WRBK_ACC][HIT_RESERVED] = 0
	L2_cache_stats_breakdown[L2_WRBK_ACC][MISS] = 0
	L2_cache_stats_breakdown[L2_WRBK_ACC][RESERVATION_FAIL] = 0
	L2_cache_stats_breakdown[L2_WRBK_ACC][SECTOR_MISS] = 0
	L2_cache_stats_breakdown[L2_WRBK_ACC][MSHR_HIT] = 0
	L2_cache_stats_breakdown[INST_ACC_R][HIT] = 0
	L2_cache_stats_breakdown[INST_ACC_R][HIT_RESERVED] = 0
	L2_cache_stats_breakdown[INST_ACC_R][MISS] = 0
	L2_cache_stats_breakdown[INST_ACC_R][RESERVATION_FAIL] = 0
	L2_cache_stats_breakdown[INST_ACC_R][SECTOR_MISS] = 0
	L2_cache_stats_breakdown[INST_ACC_R][MSHR_HIT] = 0
	L2_cache_stats_breakdown[L1_WR_ALLOC_R][HIT] = 0
	L2_cache_stats_breakdown[L1_WR_ALLOC_R][HIT_RESERVED] = 0
	L2_cache_stats_breakdown[L1_WR_ALLOC_R][MISS] = 0
	L2_cache_stats_breakdown[L1_WR_ALLOC_R][RESERVATION_FAIL] = 0
	L2_cache_stats_breakdown[L1_WR_ALLOC_R][SECTOR_MISS] = 0
	L2_cache_stats_breakdown[L1_WR_ALLOC_R][MSHR_HIT] = 0
	L2_cache_stats_breakdown[L2_WR_ALLOC_R][HIT] = 0
	L2_cache_stats_breakdown[L2_WR_ALLOC_R][HIT_RESERVED] = 0
	L2_cache_stats_breakdown[L2_WR_ALLOC_R][MISS] = 0
	L2_cache_stats_breakdown[L2_WR_ALLOC_R][RESERVATION_FAIL] = 0
	L2_cache_stats_breakdown[L2_WR_ALLOC_R][SECTOR_MISS] = 0
	L2_cache_stats_breakdown[L2_WR_ALLOC_R][MSHR_HIT] = 0
	L2_cache_stats_breakdown[GLOBAL_ACC_R][TOTAL_ACCESS] = 1155072
	L2_cache_stats_breakdown[GLOBAL_ACC_W][TOTAL_ACCESS] = 270336
L2_total_cache_reservation_fail_breakdown:
	L2_cache_stats_fail_breakdown[GLOBAL_ACC_R][MSHR_MERGE_ENRTY_FAIL] = 48705
L2_cache_data_port_util = 0.052
L2_cache_fill_port_util = 0.012

icnt_total_pkts_mem_to_simt=1425408
icnt_total_pkts_simt_to_mem=1425408
LD_mem_lat_dist  0 0 0 0 0 0 0 0 0 0 0 0 0 0 0 0 0 0 0 0 0 0 0 0 0 0 0
ST_mem_lat_dist  0 0 0 0 0 0 0 0 0 0 0 0 0 0 0 0 0 0 0 0 0 0 0 0 0 0 0
----------------------------Interconnect-DETAILS--------------------------------
Req_Network_injected_packets_num = 1425408
Req_Network_cycles = 567185
Req_Network_injected_packets_per_cycle =       2.5131 
Req_Network_conflicts_per_cycle =       0.5109
Req_Network_conflicts_per_cycle_util =       0.7896
Req_Bank_Level_Parallism =       3.8839
Req_Network_in_buffer_full_per_cycle =       0.0000
Req_Network_in_buffer_avg_util =       0.5465
Req_Network_out_buffer_full_per_cycle =       0.0000
Req_Network_out_buffer_avg_util =       0.1995

Reply_Network_injected_packets_num = 1425408
Reply_Network_cycles = 567185
Reply_Network_injected_packets_per_cycle =        2.5131
Reply_Network_conflicts_per_cycle =        1.5174
Reply_Network_conflicts_per_cycle_util =       2.3761
Reply_Bank_Level_Parallism =       3.9353
Reply_Network_in_buffer_full_per_cycle =       0.0000
Reply_Network_in_buffer_avg_util =       0.3646
Reply_Network_out_buffer_full_per_cycle =       0.0000
Reply_Network_out_buffer_avg_util =       0.0546
----------------------------END-of-Interconnect-DETAILS-------------------------


gpgpu_simulation_time = 0 days, 0 hrs, 18 min, 49 sec (1129 sec)
gpgpu_simulation_rate = 583487 (inst/sec)
gpgpu_simulation_rate = 502 (cycle/sec)
gpgpu_silicon_slowdown = 2254980x
Verification: Output[0] = 1.000000 (Expected: ~1.0)
GPGPU-Sim: *** exit detected ***
